                                   MODFLOW 6
                U.S. GEOLOGICAL SURVEY MODULAR HYDROLOGIC MODEL
                          GROUNDWATER FLOW MODEL (GWF)
                            VERSION 6.1.0 12/12/2019

   MODFLOW 6 compiled Dec 13 2019 11:34:14 with IFORT compiler (ver. 18.0.3)

This software has been approved for release by the U.S. Geological 
Survey (USGS). Although the software has been subjected to rigorous 
review, the USGS reserves the right to update the software as needed 
pursuant to further analysis and review. No warranty, expressed or 
implied, is made by the USGS or the U.S. Government as to the 
functionality of the software and related material nor shall the 
fact of release constitute any such warranty. Furthermore, the 
software is released on condition that neither the USGS nor the U.S. 
Government shall be held liable for any damages resulting from its 
authorized or unauthorized use. Also refer to the USGS Water 
Resources Software User Rights Notice for complete use, copyright, 
and distribution information.


MODFLOW was compiled using uniform precision.
Precision of REAL variables: 15


 OPENED freyberg6.dis
 FILE TYPE:DIS6                   UNIT 1005   STATUS:OLD                 
 FORMAT:FORMATTED              ACCESS:SEQUENTIAL          
 ACTION:READ                


 OPENED freyberg6.ic
 FILE TYPE:IC6                    UNIT 1006   STATUS:OLD                 
 FORMAT:FORMATTED              ACCESS:SEQUENTIAL          
 ACTION:READ                


 OPENED freyberg6.npf
 FILE TYPE:NPF6                   UNIT 1007   STATUS:OLD                 
 FORMAT:FORMATTED              ACCESS:SEQUENTIAL          
 ACTION:READ                


 OPENED freyberg6.sto
 FILE TYPE:STO6                   UNIT 1008   STATUS:OLD                 
 FORMAT:FORMATTED              ACCESS:SEQUENTIAL          
 ACTION:READ                


 OPENED freyberg6.oc
 FILE TYPE:OC6                    UNIT 1009   STATUS:OLD                 
 FORMAT:FORMATTED              ACCESS:SEQUENTIAL          
 ACTION:READ                


 OPENED freyberg6.wel
 FILE TYPE:WEL6                   UNIT 1010   STATUS:OLD                 
 FORMAT:FORMATTED              ACCESS:SEQUENTIAL          
 ACTION:READ                


 OPENED freyberg6.rch
 FILE TYPE:RCH6                   UNIT 1011   STATUS:OLD                 
 FORMAT:FORMATTED              ACCESS:SEQUENTIAL          
 ACTION:READ                


 OPENED freyberg6.ghb
 FILE TYPE:GHB6                   UNIT 1012   STATUS:OLD                 
 FORMAT:FORMATTED              ACCESS:SEQUENTIAL          
 ACTION:READ                


 OPENED freyberg6.sfr
 FILE TYPE:SFR6                   UNIT 1013   STATUS:OLD                 
 FORMAT:FORMATTED              ACCESS:SEQUENTIAL          
 ACTION:READ                


 OPENED head.obs
 FILE TYPE:OBS6                   UNIT 1014   STATUS:OLD                 
 FORMAT:FORMATTED              ACCESS:SEQUENTIAL          
 ACTION:READ                

 NAMEFILE OPTIONS:
    NEWTON-RAPHSON method enabled for the model.

 DIS -- STRUCTURED GRID DISCRETIZATION PACKAGE, VERSION 2 : 3/27/2014 - INPUT READ FROM UNIT 1005


 PROCESSING DISCRETIZATION OPTIONS
    MODEL LENGTH UNIT IS METERS
 END OF DISCRETIZATION OPTIONS
 PROCESSING DISCRETIZATION DIMENSIONS
    NLAY =       3
    NROW =      40
    NCOL =      20
 END OF DISCRETIZATION DIMENSIONS
 PROCESSING GRIDDATA

                     DELR =   250.0000    

                     DELC =   250.0000    

 TOP ELEVATION OF LAYER 1

            1       2       3       4       5       6       7       8       9      10      11      12      13      14      15
           16      17      18      19      20
 ............................................................................................................................
   1     41.4    41.3    41.2    41.0    40.7    40.4    40.1    39.8    39.4    39.1    38.7    38.4    38.1    37.7    37.3
         36.8    37.0    37.0    37.1    37.1
   2     41.4    41.3    41.2    41.0    40.7    40.4    40.1    39.8    39.4    39.1    38.7    38.4    38.0    37.7    37.3
         36.8    37.0    37.0    37.1    37.1
   3     41.4    41.4    41.2    41.0    40.7    40.4    40.1    39.8    39.4    39.0    38.7    38.3    38.0    37.6    37.3
         36.8    36.9    37.0    37.1    37.1
   4     41.5    41.4    41.2    41.0    40.7    40.5    40.1    39.7    39.4    39.0    38.6    38.3    37.9    37.6    37.2
         36.8    36.9    37.0    37.0    37.1
   5     41.5    41.5    41.3    41.1    40.8    40.4    40.1    39.7    39.3    38.9    38.5    38.2    37.9    37.5    37.2
         36.8    36.9    37.0    37.0    37.0
   6     41.6    41.5    41.4    41.1    40.8    40.5    40.1    39.6    39.2    38.8    38.4    38.1    37.8    37.5    37.1
         36.7    36.8    36.9    36.9    37.0
   7     41.7    41.6    41.5    41.2    40.9    40.5    40.0    39.5    39.1    38.6    38.3    38.0    37.7    37.4    37.1
         36.7    36.8    36.8    36.9    36.9
   8     41.8    41.7    41.6    41.4    40.9    40.5    40.0    39.3    38.9    38.4    38.1    37.9    37.6    37.3    37.0
         36.6    36.7    36.8    36.8    36.9
   9     41.9    41.9    41.8    41.7 -1050.0 -1050.0 -1050.0    38.9    38.5    38.2    38.0    37.7    37.5    37.2    36.9
         36.5    36.5    36.7    36.7    36.8
  10     42.0    42.0    42.0    41.9 -1050.0 -1050.0 -1050.0 -1050.0    38.2    38.0    37.8    37.6    37.3    37.0    36.8
         36.4    36.3    36.5    36.7    36.7
  11     42.1    42.1    42.1    42.1 -1050.0 -1050.0 -1050.0 -1050.0    37.9    37.8    37.6    37.4    37.2    36.9    36.7
         36.4    36.5    36.6    36.7    36.7
  12     42.1    42.1    42.1    42.1 -1050.0 -1050.0 -1050.0 -1050.0    37.7    37.7    37.5    37.3    37.0    36.6    36.6
         36.4    36.5    36.6    36.7    36.7
  13     42.1    42.1    42.1    42.1 -1050.0 -1050.0 -1050.0 -1050.0    37.6    37.5    37.4    37.2    37.0    36.8    36.6
         36.4    36.6    36.6    36.7    36.7
  14     42.1    42.1    42.1    42.1 -1050.0 -1050.0 -1050.0 -1050.0    37.5    37.5    37.3    37.2    37.0    36.8    36.7
         36.4    36.6    36.7    36.7    36.7
  15     42.0    42.0    42.0    42.0 -1050.0 -1050.0 -1050.0 -1050.0    37.5    37.4    37.3    37.2    37.0    36.9    36.7
         36.4    36.6    36.7    36.7    36.7
  16     41.9    41.9    41.8    41.8 -1050.0 -1050.0 -1050.0 -1050.0    37.4    37.4    37.3    37.2    37.0    36.8    36.7
         36.4    36.6    36.7    36.7    36.7
  17     41.7    41.7    41.7    41.7 -1050.0 -1050.0 -1050.0 -1050.0    37.4    37.3    37.2    37.1    37.0    36.8    36.7
         36.4    36.6    36.6    36.7    36.7
  18     41.5    41.5    41.4    41.5 -1050.0 -1050.0 -1050.0 -1050.0    37.3    37.3    37.2    37.1    37.0    36.8    36.6
         36.4    36.5    36.6    36.7    36.7
  19     41.2    41.2    41.2    41.2 -1050.0 -1050.0 -1050.0 -1050.0    37.3    37.3    37.2    37.1    36.9    36.7    36.6
         36.4    36.5    36.6    36.7    36.7
  20     41.0    40.9    40.9    40.9 -1050.0 -1050.0 -1050.0 -1050.0    37.3    37.3    37.2    37.0    36.9    36.7    36.5
         36.3    36.5    36.6    36.6    36.7
  21     40.6    40.6    40.6    40.6 -1050.0 -1050.0 -1050.0 -1050.0    37.4    37.3    37.2    37.0    36.8    36.6    36.2
         36.3    36.4    36.6    36.6    36.7
  22     40.3    40.3    40.2    40.2 -1050.0 -1050.0    37.7    37.6    37.4    37.3    37.2    37.0    36.8    36.6    36.4
         36.3    36.4    36.5    36.6    36.6
  23     40.0    39.9    39.8    39.7    39.3 -1050.0    37.8    37.7    37.5    37.3    37.1    37.0    36.8    36.7    36.5
         36.3    36.4    36.5    36.6    36.6
  24     39.7    39.6    39.5    39.3    39.0    38.4    38.0    37.7    37.5    37.3    37.1    37.0    36.8    36.7    36.5
         36.3    36.4    36.5    36.6    36.6
  25     39.4    39.3    39.2    39.0    38.7    38.3    38.0    37.7    37.4    37.2    37.0    36.9    36.8    36.6    36.5
         36.3    36.4    36.5    36.6    36.6
  26     39.1    39.0    38.9    38.7    38.4    38.1    37.9    37.6    37.4    37.1    36.9    36.8    36.7    36.6    36.5
         36.3    36.4    36.5    36.6    36.6
  27     38.8    38.8    38.6    38.5    38.2    38.0    37.7    37.5    37.2    37.0    36.6    36.7    36.7    36.6    36.4
         36.3    36.4    36.5    36.5    36.6
  28     38.6    38.5    38.4    38.2    38.0    37.8    37.5    37.3    37.1    36.9    36.7    36.7    36.6    36.5    36.4
         36.2    36.4    36.4    36.5    36.5
  29     38.4    38.3    38.2    38.0    37.8    37.5    37.3    37.1    37.0    36.9    36.7    36.7    36.6    36.5    36.4
         36.2    36.3    36.4    36.5    36.5
  30     38.2    38.1    38.0    37.8    37.6    37.3    36.8    36.9    36.9    36.8    36.7    36.6    36.5    36.4    36.3
         36.2    36.3    36.4    36.4    36.5
  31     38.1    38.0    37.8    37.7    37.4    37.2    37.0    36.9    36.8    36.7    36.6    36.5    36.4    36.3    36.3
         36.1    36.3    36.3    36.4    36.4
  32     38.0    37.8    37.7    37.5    37.3    37.1    36.9    36.8    36.7    36.6    36.5    36.4    36.3    36.2    36.2
         36.1    36.2    36.3    36.3    36.4
  33  -1050.0    37.7    37.5    37.3    37.1    36.9    36.8    36.6    36.5    36.4    36.3    36.2    36.1    36.1    36.1
         36.0    36.2    36.2    36.3    36.3
  34  -1050.0 -1050.0    37.3    37.1    36.9    36.7    36.6    36.4    36.3    36.2    36.1    36.0    35.9    35.9    36.0
         36.0    36.1    36.2    36.2    36.3
  35  -1050.0 -1050.0 -1050.0    36.9    36.6    36.5    36.3    36.2    36.1    35.9    35.8    35.7    35.4    35.7    35.8
         35.9    36.0    36.1    36.2    36.2
  36  -1050.0 -1050.0 -1050.0 -1050.0    36.3    36.2    36.0    35.9    35.8    35.7    35.6    35.5    35.5    35.6    35.7
         35.8    35.9    36.0    36.1 -1050.0
  37  -1050.0 -1050.0 -1050.0 -1050.0    36.1    35.8    35.6    35.5    35.4    35.4    35.3    35.3    35.3    35.4    35.5
         35.7    35.8    35.9    36.0 -1050.0
  38  -1050.0 -1050.0 -1050.0 -1050.0 -1050.0    35.3    35.2    35.1    35.1    35.0    35.0    35.0    35.0    35.1    35.3
         35.6    35.7    35.9 -1050.0 -1050.0
  39  -1050.0 -1050.0 -1050.0 -1050.0 -1050.0    34.7    34.7    34.7    34.7    34.6    34.6    34.6    34.7    34.7    35.0
         35.5    35.6 -1050.0 -1050.0 -1050.0
  40  -1050.0 -1050.0 -1050.0 -1050.0 -1050.0    34.1    34.1    34.1    34.1    34.1    34.1    34.1    34.1    34.1    34.1
         34.1 -1050.0 -1050.0 -1050.0 -1050.0

   MODEL LAYER BOTTOM EL. =   32.50000     FOR LAYER 1

   MODEL LAYER BOTTOM EL. =   30.00000     FOR LAYER 2

   MODEL LAYER BOTTOM EL. FOR LAYER 3

            1       2       3       4       5       6       7       8       9      10      11      12      13      14      15
           16      17      18      19      20
 ............................................................................................................................
   1      8.9     8.7     8.4     8.0     7.6     7.2     6.6     6.1     5.5     5.0     4.6     4.5     4.5     4.7     5.0
          5.3     5.5     5.6     5.6     5.5
   2      9.2     9.0     8.7     8.3     7.9     7.4     6.8     6.2     5.5     4.7     4.2     4.1     4.2     4.6     5.0
          5.3     5.6     5.7     5.6     5.5
   3      9.6     9.4     9.1     8.7     8.2     7.7     7.1     6.4     5.5     4.6     3.7     3.6     4.0     4.4     4.9
          5.4     5.8     5.8     5.6     5.5
   4     10.0     9.8     9.5     9.1     8.6     8.1     7.4     6.7     5.9     4.8     3.0     3.5     3.9     4.3     4.8
          5.4     6.0     5.7     5.5     5.3
   5     10.5    10.3    10.0     9.6     9.1     8.5     7.8     7.1     6.5     6.0     4.4     3.9     4.0     4.2     4.6
          5.0     5.4     5.4     5.2     5.1
   6     11.0    10.8    10.5    10.1     9.5     8.9     8.2     7.4     6.8     6.0     5.0     4.3     4.1     4.1     4.3
          4.5     4.8     4.8     4.8     4.8
   7     11.5    11.4    11.1    10.6    10.0     9.2     8.4     7.6     6.8     6.0     5.2     4.5     4.1     3.9     3.9
          4.0     4.2     4.3     4.4     4.5
   8     12.1    12.0    11.8    11.2    10.5     9.6     8.7     7.7     6.8     5.9     5.1     4.4     4.0     3.7     3.5
          3.5     3.7     3.9     4.0     4.1
   9     12.6    12.7    12.4    11.8    10.9     9.9     8.8     7.7     6.7     5.8     5.0     4.3     3.7     3.4     3.2
          3.0     3.3     3.5     3.7     3.8
  10     13.0    13.3    13.2    12.4    11.2    10.0     8.8     7.7     6.6     5.6     4.7     4.0     3.4     3.1     2.9
          2.9     3.0     3.2     3.4     3.6
  11     13.1    13.5    14.0    12.6    11.2     9.9     8.7     7.5     6.3     5.3     4.4     3.6     3.0     2.8     2.7
          2.7     2.8     3.0     3.2     3.4
  12     12.8    13.1    13.0    12.1    10.9     9.6     8.4     7.1     6.0     4.9     4.0     3.2     2.7     2.5     2.5
          2.5     2.7     2.9     3.1     3.2
  13     12.3    12.3    12.1    11.4    10.3     9.2     8.0     6.8     5.6     4.5     3.5     2.8     2.3     2.2     2.3
          2.4     2.6     2.8     3.0     3.1
  14     11.7    11.6    11.2    10.6     9.7     8.6     7.5     6.3     5.2     4.0     3.0     2.2     1.9     1.9     2.1
          2.3     2.5     2.8     3.0     3.1
  15     11.1    10.9    10.5     9.8     9.0     8.1     7.0     5.9     4.8     3.7     2.6     1.5     1.6     1.8     2.0
          2.3     2.5     2.8     3.0     3.1
  16     10.5    10.2     9.8     9.2     8.4     7.5     6.6     5.5     4.5     3.5     2.5     1.8     1.6     1.7     1.9
          2.2     2.6     2.9     3.0     3.0
  17      9.9     9.6     9.2     8.6     7.9     7.1     6.2     5.2     4.3     3.4     2.6     2.0     1.7     1.7     1.9
          2.2     2.6     3.0     3.0     3.0
  18      9.4     9.1     8.7     8.1     7.4     6.7     5.9     5.0     4.1     3.3     2.6     2.1     1.8     1.7     1.8
          2.1     2.4     2.7     2.8     2.8
  19      9.0     8.7     8.2     7.7     7.1     6.4     5.6     4.8     4.0     3.2     2.6     2.1     1.7     1.6     1.7
          1.9     2.2     2.4     2.5     2.6
  20      8.6     8.3     7.9     7.4     6.8     6.1     5.4     4.6     3.8     3.1     2.5     2.0     1.7     1.5     1.6
          1.8     2.0     2.2     2.3     2.4
  21      8.2     7.9     7.5     7.1     6.5     5.9     5.2     4.5     3.7     3.0     2.4     1.9     1.6     1.5     1.5
          1.6     1.8     2.0     2.1     2.2
  22      8.0     7.7     7.3     6.9     6.4     5.8     5.1     4.4     3.6     2.9     2.2     1.7     1.5     1.4     1.4
          1.5     1.7     1.8     1.9     2.0
  23      7.8     7.5     7.2     6.7     6.3     5.7     5.1     4.4     3.6     2.9     2.1     1.5     1.4     1.4     1.4
          1.5     1.6     1.7     1.8     1.8
  24      7.6     7.3     7.0     6.7     6.2     5.7     5.1     4.4     3.7     2.9     2.2     1.7     1.5     1.4     1.4
          1.4     1.5     1.6     1.6     1.7
  25      7.4     7.2     6.9     6.6     6.3     5.8     5.3     4.6     3.8     3.0     2.3     1.9     1.6     1.4     1.4
          1.3     1.4     1.4     1.5     1.6
  26      7.2     7.1     6.8     6.6     6.3     6.0     5.6     4.9     4.0     3.0     2.5     2.0     1.7     1.5     1.3
          1.3     1.3     1.3     1.4     1.5
  27      7.1     6.9     6.8     6.6     6.4     6.1     5.9     5.4     4.5     3.5     2.7     2.2     1.8     1.5     1.3
          1.2     1.2     1.2     1.2     1.3
  28      6.9     6.8     6.6     6.5     6.3     6.2     6.1     6.0     4.8     3.7     2.9     2.3     1.8     1.4     1.2
          1.1     1.0     1.0     1.1     1.2
  29      6.8     6.6     6.5     6.3     6.2     6.0     5.8     5.4     4.6     3.7     2.9     2.2     1.7     1.4     1.1
          0.9     0.9     0.9     1.0     1.1
  30      6.6     6.4     6.3     6.1     5.9     5.7     5.4     5.0     4.3     3.5     2.7     2.1     1.6     1.2     0.9
          0.8     0.7     0.7     0.8     1.0
  31      6.4     6.2     6.1     5.9     5.7     5.4     5.0     4.5     3.9     3.2     2.4     1.8     1.3     1.0     0.7
          0.6     0.5     0.6     0.7     0.9
  32      6.2     6.0     5.9     5.7     5.4     5.1     4.7     4.2     3.5     2.8     2.1     1.4     1.0     0.7     0.5
          0.5     0.4     0.5     0.6     0.8
  33      6.0     5.8     5.7     5.4     5.1     4.8     4.4     3.9     3.2     2.5     1.7     1.0     0.6     0.5     0.4
          0.3     0.4     0.5     0.6     0.7
  34      5.8     5.6     5.4     5.2     4.9     4.6     4.2     3.7     3.0     2.2     1.4     0.5     0.3     0.3     0.2
          0.2     0.3     0.4     0.6     0.7
  35      5.6     5.5     5.3     5.0     4.7     4.4     4.0     3.5     3.0     2.1     1.2     0.5     0.2     0.2     0.2
          0.2     0.3     0.4     0.6     0.7
  36      5.5     5.3     5.1     4.9     4.6     4.2     3.8     3.4     2.8     2.0     1.2     0.5     0.2     0.1     0.1
          0.2     0.3     0.4     0.6     0.7
  37      5.3     5.2     4.9     4.7     4.4     4.1     3.7     3.2     2.7     1.9     1.2     0.6     0.3     0.2     0.2
          0.2     0.3     0.4     0.6     0.8
  38      5.2     5.0     4.8     4.6     4.3     4.0     3.7     3.2     2.7     2.0     1.3     0.7     0.4     0.3     0.3
          0.3     0.4     0.5     0.7     0.9
  39      5.1     4.9     4.7     4.5     4.2     4.0     3.6     3.3     2.8     2.0     1.3     0.7     0.4     0.3     0.4
          0.4     0.5     0.6     0.8     1.0
  40      5.0     4.8     4.6     4.4     4.1     3.9     3.6     3.3     3.0     2.1     1.3     0.5     0.5     0.5     0.5
          0.6     0.7     0.8     1.0     1.1

                  IDOMAIN FOR LAYER 1

          1     2     3     4     5     6     7     8     9    10    11    12    13    14    15    16    17    18    19    20
 ............................................................................................................................
   1      1     1     1     1     1     1     1     1     1     1     1     1     1     1     1     1     1     1     1     1
   2      1     1     1     1     1     1     1     1     1     1     1     1     1     1     1     1     1     1     1     1
   3      1     1     1     1     1     1     1     1     1     1     1     1     1     1     1     1     1     1     1     1
   4      1     1     1     1     1     1     1     1     1     1     1     1     1     1     1     1     1     1     1     1
   5      1     1     1     1     1     1     1     1     1     1     1     1     1     1     1     1     1     1     1     1
   6      1     1     1     1     1     1     1     1     1     1     1     1     1     1     1     1     1     1     1     1
   7      1     1     1     1     1     1     1     1     1     1     1     1     1     1     1     1     1     1     1     1
   8      1     1     1     1     1     1     1     1     1     1     1     1     1     1     1     1     1     1     1     1
   9      1     1     1     1     0     0     0     1     1     1     1     1     1     1     1     1     1     1     1     1
  10      1     1     1     1     0     0     0     0     1     1     1     1     1     1     1     1     1     1     1     1
  11      1     1     1     1     0     0     0     0     1     1     1     1     1     1     1     1     1     1     1     1
  12      1     1     1     1     0     0     0     0     1     1     1     1     1     1     1     1     1     1     1     1
  13      1     1     1     1     0     0     0     0     1     1     1     1     1     1     1     1     1     1     1     1
  14      1     1     1     1     0     0     0     0     1     1     1     1     1     1     1     1     1     1     1     1
  15      1     1     1     1     0     0     0     0     1     1     1     1     1     1     1     1     1     1     1     1
  16      1     1     1     1     0     0     0     0     1     1     1     1     1     1     1     1     1     1     1     1
  17      1     1     1     1     0     0     0     0     1     1     1     1     1     1     1     1     1     1     1     1
  18      1     1     1     1     0     0     0     0     1     1     1     1     1     1     1     1     1     1     1     1
  19      1     1     1     1     0     0     0     0     1     1     1     1     1     1     1     1     1     1     1     1
  20      1     1     1     1     0     0     0     0     1     1     1     1     1     1     1     1     1     1     1     1
  21      1     1     1     1     0     0     0     0     1     1     1     1     1     1     1     1     1     1     1     1
  22      1     1     1     1     0     0     1     1     1     1     1     1     1     1     1     1     1     1     1     1
  23      1     1     1     1     1     0     1     1     1     1     1     1     1     1     1     1     1     1     1     1
  24      1     1     1     1     1     1     1     1     1     1     1     1     1     1     1     1     1     1     1     1
  25      1     1     1     1     1     1     1     1     1     1     1     1     1     1     1     1     1     1     1     1
  26      1     1     1     1     1     1     1     1     1     1     1     1     1     1     1     1     1     1     1     1
  27      1     1     1     1     1     1     1     1     1     1     1     1     1     1     1     1     1     1     1     1
  28      1     1     1     1     1     1     1     1     1     1     1     1     1     1     1     1     1     1     1     1
  29      1     1     1     1     1     1     1     1     1     1     1     1     1     1     1     1     1     1     1     1
  30      1     1     1     1     1     1     1     1     1     1     1     1     1     1     1     1     1     1     1     1
  31      1     1     1     1     1     1     1     1     1     1     1     1     1     1     1     1     1     1     1     1
  32      1     1     1     1     1     1     1     1     1     1     1     1     1     1     1     1     1     1     1     1
  33      0     1     1     1     1     1     1     1     1     1     1     1     1     1     1     1     1     1     1     1
  34      0     0     1     1     1     1     1     1     1     1     1     1     1     1     1     1     1     1     1     1
  35      0     0     0     1     1     1     1     1     1     1     1     1     1     1     1     1     1     1     1     1
  36      0     0     0     0     1     1     1     1     1     1     1     1     1     1     1     1     1     1     1     0
  37      0     0     0     0     1     1     1     1     1     1     1     1     1     1     1     1     1     1     1     0
  38      0     0     0     0     0     1     1     1     1     1     1     1     1     1     1     1     1     1     0     0
  39      0     0     0     0     0     1     1     1     1     1     1     1     1     1     1     1     1     0     0     0
  40      0     0     0     0     0     1     1     1     1     1     1     1     1     1     1     1     0     0     0     0

                  IDOMAIN FOR LAYER 2

          1     2     3     4     5     6     7     8     9    10    11    12    13    14    15    16    17    18    19    20
 ............................................................................................................................
   1      1     1     1     1     1     1     1     1     1     1     1     1     1     1     1     1     1     1     1     1
   2      1     1     1     1     1     1     1     1     1     1     1     1     1     1     1     1     1     1     1     1
   3      1     1     1     1     1     1     1     1     1     1     1     1     1     1     1     1     1     1     1     1
   4      1     1     1     1     1     1     1     1     1     1     1     1     1     1     1     1     1     1     1     1
   5      1     1     1     1     1     1     1     1     1     1     1     1     1     1     1     1     1     1     1     1
   6      1     1     1     1     1     1     1     1     1     1     1     1     1     1     1     1     1     1     1     1
   7      1     1     1     1     1     1     1     1     1     1     1     1     1     1     1     1     1     1     1     1
   8      1     1     1     1     1     1     1     1     1     1     1     1     1     1     1     1     1     1     1     1
   9      1     1     1     1     0     0     0     1     1     1     1     1     1     1     1     1     1     1     1     1
  10      1     1     1     1     0     0     0     0     1     1     1     1     1     1     1     1     1     1     1     1
  11      1     1     1     1     0     0     0     0     1     1     1     1     1     1     1     1     1     1     1     1
  12      1     1     1     1     0     0     0     0     1     1     1     1     1     1     1     1     1     1     1     1
  13      1     1     1     1     0     0     0     0     1     1     1     1     1     1     1     1     1     1     1     1
  14      1     1     1     1     0     0     0     0     1     1     1     1     1     1     1     1     1     1     1     1
  15      1     1     1     1     0     0     0     0     1     1     1     1     1     1     1     1     1     1     1     1
  16      1     1     1     1     0     0     0     0     1     1     1     1     1     1     1     1     1     1     1     1
  17      1     1     1     1     0     0     0     0     1     1     1     1     1     1     1     1     1     1     1     1
  18      1     1     1     1     0     0     0     0     1     1     1     1     1     1     1     1     1     1     1     1
  19      1     1     1     1     0     0     0     0     1     1     1     1     1     1     1     1     1     1     1     1
  20      1     1     1     1     0     0     0     0     1     1     1     1     1     1     1     1     1     1     1     1
  21      1     1     1     1     0     0     0     0     1     1     1     1     1     1     1     1     1     1     1     1
  22      1     1     1     1     0     0     1     1     1     1     1     1     1     1     1     1     1     1     1     1
  23      1     1     1     1     1     0     1     1     1     1     1     1     1     1     1     1     1     1     1     1
  24      1     1     1     1     1     1     1     1     1     1     1     1     1     1     1     1     1     1     1     1
  25      1     1     1     1     1     1     1     1     1     1     1     1     1     1     1     1     1     1     1     1
  26      1     1     1     1     1     1     1     1     1     1     1     1     1     1     1     1     1     1     1     1
  27      1     1     1     1     1     1     1     1     1     1     1     1     1     1     1     1     1     1     1     1
  28      1     1     1     1     1     1     1     1     1     1     1     1     1     1     1     1     1     1     1     1
  29      1     1     1     1     1     1     1     1     1     1     1     1     1     1     1     1     1     1     1     1
  30      1     1     1     1     1     1     1     1     1     1     1     1     1     1     1     1     1     1     1     1
  31      1     1     1     1     1     1     1     1     1     1     1     1     1     1     1     1     1     1     1     1
  32      1     1     1     1     1     1     1     1     1     1     1     1     1     1     1     1     1     1     1     1
  33      0     1     1     1     1     1     1     1     1     1     1     1     1     1     1     1     1     1     1     1
  34      0     0     1     1     1     1     1     1     1     1     1     1     1     1     1     1     1     1     1     1
  35      0     0     0     1     1     1     1     1     1     1     1     1     1     1     1     1     1     1     1     1
  36      0     0     0     0     1     1     1     1     1     1     1     1     1     1     1     1     1     1     1     0
  37      0     0     0     0     1     1     1     1     1     1     1     1     1     1     1     1     1     1     1     0
  38      0     0     0     0     0     1     1     1     1     1     1     1     1     1     1     1     1     1     0     0
  39      0     0     0     0     0     1     1     1     1     1     1     1     1     1     1     1     1     0     0     0
  40      0     0     0     0     0     1     1     1     1     1     1     1     1     1     1     1     0     0     0     0

                  IDOMAIN FOR LAYER 3

          1     2     3     4     5     6     7     8     9    10    11    12    13    14    15    16    17    18    19    20
 ............................................................................................................................
   1      1     1     1     1     1     1     1     1     1     1     1     1     1     1     1     1     1     1     1     1
   2      1     1     1     1     1     1     1     1     1     1     1     1     1     1     1     1     1     1     1     1
   3      1     1     1     1     1     1     1     1     1     1     1     1     1     1     1     1     1     1     1     1
   4      1     1     1     1     1     1     1     1     1     1     1     1     1     1     1     1     1     1     1     1
   5      1     1     1     1     1     1     1     1     1     1     1     1     1     1     1     1     1     1     1     1
   6      1     1     1     1     1     1     1     1     1     1     1     1     1     1     1     1     1     1     1     1
   7      1     1     1     1     1     1     1     1     1     1     1     1     1     1     1     1     1     1     1     1
   8      1     1     1     1     1     1     1     1     1     1     1     1     1     1     1     1     1     1     1     1
   9      1     1     1     1     0     0     0     1     1     1     1     1     1     1     1     1     1     1     1     1
  10      1     1     1     1     0     0     0     0     1     1     1     1     1     1     1     1     1     1     1     1
  11      1     1     1     1     0     0     0     0     1     1     1     1     1     1     1     1     1     1     1     1
  12      1     1     1     1     0     0     0     0     1     1     1     1     1     1     1     1     1     1     1     1
  13      1     1     1     1     0     0     0     0     1     1     1     1     1     1     1     1     1     1     1     1
  14      1     1     1     1     0     0     0     0     1     1     1     1     1     1     1     1     1     1     1     1
  15      1     1     1     1     0     0     0     0     1     1     1     1     1     1     1     1     1     1     1     1
  16      1     1     1     1     0     0     0     0     1     1     1     1     1     1     1     1     1     1     1     1
  17      1     1     1     1     0     0     0     0     1     1     1     1     1     1     1     1     1     1     1     1
  18      1     1     1     1     0     0     0     0     1     1     1     1     1     1     1     1     1     1     1     1
  19      1     1     1     1     0     0     0     0     1     1     1     1     1     1     1     1     1     1     1     1
  20      1     1     1     1     0     0     0     0     1     1     1     1     1     1     1     1     1     1     1     1
  21      1     1     1     1     0     0     0     0     1     1     1     1     1     1     1     1     1     1     1     1
  22      1     1     1     1     0     0     1     1     1     1     1     1     1     1     1     1     1     1     1     1
  23      1     1     1     1     1     0     1     1     1     1     1     1     1     1     1     1     1     1     1     1
  24      1     1     1     1     1     1     1     1     1     1     1     1     1     1     1     1     1     1     1     1
  25      1     1     1     1     1     1     1     1     1     1     1     1     1     1     1     1     1     1     1     1
  26      1     1     1     1     1     1     1     1     1     1     1     1     1     1     1     1     1     1     1     1
  27      1     1     1     1     1     1     1     1     1     1     1     1     1     1     1     1     1     1     1     1
  28      1     1     1     1     1     1     1     1     1     1     1     1     1     1     1     1     1     1     1     1
  29      1     1     1     1     1     1     1     1     1     1     1     1     1     1     1     1     1     1     1     1
  30      1     1     1     1     1     1     1     1     1     1     1     1     1     1     1     1     1     1     1     1
  31      1     1     1     1     1     1     1     1     1     1     1     1     1     1     1     1     1     1     1     1
  32      1     1     1     1     1     1     1     1     1     1     1     1     1     1     1     1     1     1     1     1
  33      0     1     1     1     1     1     1     1     1     1     1     1     1     1     1     1     1     1     1     1
  34      0     0     1     1     1     1     1     1     1     1     1     1     1     1     1     1     1     1     1     1
  35      0     0     0     1     1     1     1     1     1     1     1     1     1     1     1     1     1     1     1     1
  36      0     0     0     0     1     1     1     1     1     1     1     1     1     1     1     1     1     1     1     0
  37      0     0     0     0     1     1     1     1     1     1     1     1     1     1     1     1     1     1     1     0
  38      0     0     0     0     0     1     1     1     1     1     1     1     1     1     1     1     1     1     0     0
  39      0     0     0     0     0     1     1     1     1     1     1     1     1     1     1     1     1     0     0     0
  40      0     0     0     0     0     1     1     1     1     1     1     1     1     1     1     1     0     0     0     0
 END PROCESSING GRIDDATA

 THE SPECIFIED IDOMAIN RESULTS IN A REDUCED NUMBER OF CELLS.
 NUMBER OF USER NODES: 2400
 NUMBER OF NODES IN SOLUTION: 2118



 NPF -- NODE PROPERTY FLOW PACKAGE, VERSION 1, 3/30/2015 INPUT READ FROM UNIT 1007


 PROCESSING NPF OPTIONS
    CELL-BY-CELL FLOW INFORMATION WILL BE SAVED TO BINARY FILE WHENEVER ICBCFL IS NOT ZERO.
 END OF NPF OPTIONS

 WEL   -- WEL PACKAGE, VERSION 8, 2/22/2014 INPUT READ FROM UNIT 1010

 PROCESSING WEL OPTIONS
    LISTS OF WEL CELLS WILL BE PRINTED.
    WEL FLOWS WILL BE PRINTED TO LISTING FILE.
    FLOWS WILL BE SAVED TO BUDGET FILE SPECIFIED IN OUTPUT CONTROL
 END OF WEL OPTIONS

 PROCESSING WEL DIMENSIONS
    MAXBOUND =       6
 END OF WEL DIMENSIONS

 GHB   -- GHB PACKAGE, VERSION 8, 2/22/2014 INPUT READ FROM UNIT 1012

 PROCESSING GHB OPTIONS
    LISTS OF GHB CELLS WILL BE PRINTED.
    GHB FLOWS WILL BE PRINTED TO LISTING FILE.
    FLOWS WILL BE SAVED TO BUDGET FILE SPECIFIED IN OUTPUT CONTROL
 END OF GHB OPTIONS

 PROCESSING GHB DIMENSIONS
    MAXBOUND =      30
 END OF GHB DIMENSIONS

 RCH   -- RCH PACKAGE, VERSION 8, 2/22/2014 INPUT READ FROM UNIT 1011

 PROCESSING RCH OPTIONS
    RECHARGE INPUT WILL BE READ AS ARRAY(S).
    FLOWS WILL BE SAVED TO BUDGET FILE SPECIFIED IN OUTPUT CONTROL
 END OF RCH OPTIONS

 SFR   -- SFR PACKAGE, VERSION 8, 2/22/2014 INPUT READ FROM UNIT 1013

 PROCESSING SFR OPTIONS
    SFR BOUNDARIES HAVE NAMES IN LAST COLUMN.

 OPENED sfr.obs
 FILE TYPE:OBS   UNIT 1016   STATUS:OLD                 
 FORMAT:FORMATTED              ACCESS:SEQUENTIAL          
 ACTION:READ                

    LISTS OF SFR CELLS WILL BE PRINTED.
    FLOWS WILL BE SAVED TO BUDGET FILE SPECIFIED IN OUTPUT CONTROL
    MAXIMUM DEPTH CHANGE VALUE (  0.1000000E-03) SPECIFIED.
    UNIT CONVERSION VALUE (   86400.00    ) SPECIFIED.
 END OF SFR OPTIONS

 PROCESSING SFR DIMENSIONS
    NREACHES = 40
 END OF SFR DIMENSIONS

 IC -- INITIAL CONDITIONS PACKAGE, VERSION 8, 3/28/2015 INPUT READ FROM UNIT 1006
 PROCESSING GRIDDATA

     INITIAL HEAD FOR LAYER 1

               1          2          3          4          5          6          7          8          9         10         11
              12         13         14         15         16         17         18         19         20
 .............................................................................................................................
   1    39.4       39.4       39.2       39.0       38.8       38.5       38.2       37.9       37.6       37.2       36.9    
        36.6       36.2       35.9       35.5       35.1       35.2       35.3       35.3       35.3    
   2    39.4       39.4       39.2       39.0       38.8       38.5       38.2       37.9       37.6       37.2       36.9    
        36.6       36.2       35.9       35.5       35.1       35.2       35.3       35.3       35.3    
   3    39.5       39.4       39.2       39.0       38.8       38.5       38.2       37.9       37.5       37.2       36.8    
        36.5       36.2       35.8       35.5       35.0       35.2       35.3       35.3       35.3    
   4    39.5       39.4       39.3       39.1       38.8       38.5       38.2       37.8       37.5       37.1       36.8    
        36.5       36.1       35.8       35.4       35.0       35.2       35.2       35.3       35.3    
   5    39.6       39.5       39.3       39.1       38.8       38.5       38.2       37.8       37.4       37.0       36.7    
        36.4       36.1       35.7       35.4       35.0       35.1       35.2       35.2       35.3    
   6    39.6       39.6       39.4       39.2       38.9       38.5       38.2       37.7       37.3       36.9       36.6    
        36.3       36.0       35.7       35.4       35.0       35.1       35.1       35.2       35.2    
   7    39.7       39.6       39.5       39.2       38.9       38.5       38.1       37.6       37.2       36.8       36.5    
        36.2       35.9       35.6       35.3       34.9       35.0       35.1       35.1       35.2    
   8    39.8       39.7       39.6       39.4       39.0       38.5       38.1       37.5       37.0       36.6       36.3    
        36.1       35.8       35.5       35.2       34.9       34.9       35.0       35.1       35.1    
   9    39.9       39.9       39.8       39.7     -1000.     -1000.     -1000.       37.1       36.7       36.4       36.2    
        35.9       35.7       35.4       35.1       34.8       34.8       34.9       35.0       35.0    
  10    40.0       40.0       40.0       39.9     -1000.     -1000.     -1000.     -1000.       36.3       36.2       36.0    
        35.8       35.5       35.3       35.0       34.7       34.5       34.8       34.9       35.0    
  11    40.1       40.1       40.1       40.1     -1000.     -1000.     -1000.     -1000.       36.1       36.0       35.8    
        35.7       35.4       35.1       34.9       34.7       34.7       34.8       34.9       35.0    
  12    40.1       40.1       40.1       40.1     -1000.     -1000.     -1000.     -1000.       35.9       35.9       35.7    
        35.5       35.3       34.8       34.8       34.7       34.8       34.9       34.9       35.0    
  13    40.1       40.1       40.1       40.1     -1000.     -1000.     -1000.     -1000.       35.8       35.8       35.6    
        35.5       35.3       35.0       34.9       34.7       34.8       34.9       35.0       35.0    
  14    40.1       40.1       40.1       40.1     -1000.     -1000.     -1000.     -1000.       35.7       35.7       35.6    
        35.4       35.3       35.1       34.9       34.7       34.8       34.9       35.0       35.0    
  15    40.0       40.0       40.0       40.0     -1000.     -1000.     -1000.     -1000.       35.7       35.6       35.5    
        35.4       35.3       35.1       34.9       34.7       34.8       34.9       35.0       35.0    
  16    39.9       39.9       39.8       39.8     -1000.     -1000.     -1000.     -1000.       35.6       35.6       35.5    
        35.4       35.2       35.1       34.9       34.7       34.8       34.9       35.0       35.0    
  17    39.7       39.7       39.7       39.7     -1000.     -1000.     -1000.     -1000.       35.6       35.5       35.5    
        35.4       35.2       35.1       34.9       34.7       34.8       34.9       34.9       35.0    
  18    39.5       39.5       39.5       39.5     -1000.     -1000.     -1000.     -1000.       35.6       35.5       35.4    
        35.3       35.2       35.0       34.9       34.7       34.8       34.9       34.9       35.0    
  19    39.3       39.3       39.2       39.2     -1000.     -1000.     -1000.     -1000.       35.6       35.5       35.4    
        35.3       35.2       35.0       34.8       34.6       34.8       34.9       34.9       34.9    
  20    39.0       39.0       39.0       39.0     -1000.     -1000.     -1000.     -1000.       35.6       35.5       35.4    
        35.3       35.1       34.9       34.7       34.6       34.7       34.8       34.9       34.9    
  21    38.7       38.7       38.7       38.6     -1000.     -1000.     -1000.     -1000.       35.6       35.5       35.4    
        35.3       35.1       34.8       34.5       34.5       34.7       34.8       34.9       34.9    
  22    38.4       38.4       38.3       38.2     -1000.     -1000.       35.9       35.8       35.7       35.5       35.4    
        35.2       35.1       34.9       34.7       34.6       34.7       34.8       34.9       34.9    
  23    38.1       38.0       37.9       37.8       37.5     -1000.       36.0       35.9       35.7       35.5       35.4    
        35.2       35.1       34.9       34.7       34.6       34.7       34.8       34.9       34.9    
  24    37.8       37.7       37.6       37.4       37.1       36.6       36.2       35.9       35.7       35.5       35.3    
        35.2       35.1       34.9       34.8       34.6       34.7       34.8       34.8       34.9    
  25    37.5       37.4       37.3       37.1       36.8       36.4       36.1       35.9       35.7       35.4       35.3    
        35.1       35.0       34.9       34.8       34.6       34.7       34.8       34.8       34.9    
  26    37.2       37.2       37.1       36.8       36.6       36.3       36.1       35.8       35.6       35.3       35.1    
        35.1       35.0       34.9       34.7       34.6       34.7       34.8       34.8       34.8    
  27    37.0       36.9       36.8       36.6       36.4       36.2       35.9       35.7       35.5       35.2       34.8    
        34.9       34.9       34.8       34.7       34.5       34.7       34.7       34.8       34.8    
  28    36.8       36.7       36.6       36.4       36.2       36.0       35.7       35.5       35.4       35.2       35.0    
        34.9       34.9       34.8       34.7       34.5       34.6       34.7       34.8       34.8    
  29    36.6       36.5       36.4       36.2       36.0       35.7       35.5       35.4       35.3       35.1       35.0    
        34.9       34.8       34.7       34.6       34.5       34.6       34.7       34.7       34.8    
  30    36.4       36.3       36.2       36.0       35.8       35.5       35.1       35.2       35.1       35.0       34.9    
        34.9       34.8       34.7       34.6       34.5       34.6       34.6       34.7       34.7    
  31    36.3       36.2       36.0       35.9       35.7       35.4       35.2       35.1       35.0       34.9       34.8    
        34.8       34.7       34.6       34.5       34.4       34.5       34.6       34.7       34.7    
  32    36.2       36.0       35.9       35.7       35.5       35.3       35.1       35.0       34.9       34.8       34.7    
        34.6       34.6       34.5       34.5       34.4       34.5       34.6       34.6       34.6    
  33  -1000.       35.9       35.7       35.5       35.4       35.2       35.0       34.9       34.8       34.7       34.6    
        34.5       34.4       34.4       34.4       34.3       34.4       34.5       34.6       34.6    
  34  -1000.     -1000.       35.6       35.4       35.2       35.0       34.8       34.7       34.6       34.5       34.4    
        34.3       34.2       34.2       34.2       34.3       34.4       34.5       34.5       34.6    
  35  -1000.     -1000.     -1000.       35.1       34.9       34.7       34.6       34.5       34.3       34.2       34.1    
        34.0       33.8       34.0       34.1       34.2       34.3       34.4       34.5       34.5    
  36  -1000.     -1000.     -1000.     -1000.       34.6       34.4       34.3       34.2       34.1       34.0       33.9    
        33.8       33.8       33.9       34.0       34.1       34.2       34.3       34.4     -1000.    
  37  -1000.     -1000.     -1000.     -1000.       34.4       34.1       34.0       33.8       33.8       33.7       33.6    
        33.6       33.6       33.7       33.8       34.0       34.1       34.2       34.3     -1000.    
  38  -1000.     -1000.     -1000.     -1000.     -1000.       33.6       33.5       33.4       33.4       33.4       33.3    
        33.3       33.4       33.5       33.6       33.9       34.0       34.2     -1000.     -1000.    
  39  -1000.     -1000.     -1000.     -1000.     -1000.       33.1       33.1       33.0       33.0       33.0       33.0    
        33.0       33.0       33.1       33.3       33.8       33.9     -1000.     -1000.     -1000.    
  40  -1000.     -1000.     -1000.     -1000.     -1000.       32.5       32.5       32.5       32.5       32.5       32.5    
        32.5       32.5       32.5       32.5     -1000.     -1000.     -1000.     -1000.     -1000.    

     INITIAL HEAD FOR LAYER 2

               1          2          3          4          5          6          7          8          9         10         11
              12         13         14         15         16         17         18         19         20
 .............................................................................................................................
   1    39.4       39.4       39.2       39.0       38.8       38.5       38.2       37.9       37.6       37.2       36.9    
        36.6       36.2       35.9       35.5       35.1       35.2       35.3       35.3       35.3    
   2    39.4       39.4       39.2       39.0       38.8       38.5       38.2       37.9       37.6       37.2       36.9    
        36.6       36.2       35.9       35.5       35.1       35.2       35.3       35.3       35.3    
   3    39.5       39.4       39.2       39.0       38.8       38.5       38.2       37.9       37.5       37.2       36.8    
        36.5       36.2       35.8       35.5       35.1       35.2       35.2       35.3       35.3    
   4    39.5       39.4       39.3       39.0       38.8       38.5       38.2       37.8       37.5       37.1       36.8    
        36.5       36.1       35.8       35.4       35.0       35.2       35.2       35.3       35.3    
   5    39.6       39.5       39.3       39.1       38.8       38.5       38.2       37.8       37.4       37.0       36.7    
        36.4       36.1       35.7       35.4       35.0       35.1       35.2       35.2       35.3    
   6    39.6       39.6       39.4       39.2       38.9       38.5       38.1       37.7       37.3       36.9       36.6    
        36.3       36.0       35.7       35.4       35.0       35.1       35.1       35.2       35.2    
   7    39.7       39.6       39.5       39.2       38.9       38.5       38.1       37.6       37.2       36.8       36.5    
        36.2       35.9       35.6       35.3       34.9       35.0       35.1       35.1       35.2    
   8    39.8       39.7       39.6       39.4       39.0       38.5       38.1       37.5       37.0       36.6       36.3    
        36.1       35.8       35.5       35.2       34.9       34.9       35.0       35.1       35.1    
   9    39.9       39.9       39.8       39.7     -1000.     -1000.     -1000.       37.1       36.7       36.4       36.2    
        35.9       35.7       35.4       35.1       34.8       34.8       34.9       35.0       35.0    
  10    40.0       40.0       40.0       39.9     -1000.     -1000.     -1000.     -1000.       36.3       36.2       36.0    
        35.8       35.5       35.3       35.0       34.7       34.5       34.8       34.9       35.0    
  11    40.1       40.1       40.1       40.1     -1000.     -1000.     -1000.     -1000.       36.1       36.0       35.8    
        35.6       35.4       35.1       34.9       34.7       34.7       34.8       34.9       35.0    
  12    40.1       40.1       40.1       40.1     -1000.     -1000.     -1000.     -1000.       35.9       35.9       35.7    
        35.5       35.3       34.8       34.8       34.7       34.8       34.9       34.9       35.0    
  13    40.1       40.1       40.1       40.1     -1000.     -1000.     -1000.     -1000.       35.8       35.8       35.6    
        35.5       35.3       35.0       34.9       34.7       34.8       34.9       35.0       35.0    
  14    40.1       40.1       40.1       40.1     -1000.     -1000.     -1000.     -1000.       35.7       35.7       35.6    
        35.4       35.3       35.1       34.9       34.7       34.8       34.9       35.0       35.0    
  15    40.0       40.0       40.0       40.0     -1000.     -1000.     -1000.     -1000.       35.7       35.6       35.5    
        35.4       35.3       35.1       34.9       34.7       34.8       34.9       35.0       35.0    
  16    39.9       39.9       39.8       39.8     -1000.     -1000.     -1000.     -1000.       35.6       35.6       35.5    
        35.4       35.2       35.1       34.9       34.7       34.8       34.9       35.0       35.0    
  17    39.7       39.7       39.7       39.7     -1000.     -1000.     -1000.     -1000.       35.6       35.5       35.5    
        35.4       35.2       35.1       34.9       34.7       34.8       34.9       34.9       35.0    
  18    39.5       39.5       39.5       39.5     -1000.     -1000.     -1000.     -1000.       35.6       35.5       35.4    
        35.3       35.2       35.0       34.9       34.7       34.8       34.9       34.9       35.0    
  19    39.3       39.3       39.2       39.2     -1000.     -1000.     -1000.     -1000.       35.6       35.5       35.4    
        35.3       35.2       35.0       34.8       34.6       34.8       34.9       34.9       34.9    
  20    39.0       39.0       39.0       39.0     -1000.     -1000.     -1000.     -1000.       35.6       35.5       35.4    
        35.3       35.1       34.9       34.7       34.6       34.7       34.8       34.9       34.9    
  21    38.7       38.7       38.7       38.6     -1000.     -1000.     -1000.     -1000.       35.6       35.5       35.4    
        35.3       35.1       34.8       34.5       34.5       34.7       34.8       34.9       34.9    
  22    38.4       38.4       38.3       38.2     -1000.     -1000.       35.9       35.8       35.7       35.5       35.4    
        35.2       35.1       34.9       34.7       34.6       34.7       34.8       34.9       34.9    
  23    38.1       38.0       37.9       37.8       37.5     -1000.       36.0       35.9       35.7       35.5       35.4    
        35.2       35.1       34.9       34.7       34.6       34.7       34.8       34.9       34.9    
  24    37.8       37.7       37.6       37.4       37.1       36.6       36.2       35.9       35.7       35.5       35.3    
        35.2       35.1       34.9       34.8       34.6       34.7       34.8       34.8       34.9    
  25    37.5       37.4       37.3       37.1       36.8       36.4       36.1       35.9       35.7       35.4       35.3    
        35.1       35.0       34.9       34.8       34.6       34.7       34.8       34.8       34.9    
  26    37.2       37.2       37.1       36.8       36.6       36.3       36.1       35.8       35.6       35.3       35.1    
        35.0       35.0       34.9       34.7       34.6       34.7       34.8       34.8       34.8    
  27    37.0       36.9       36.8       36.6       36.4       36.2       35.9       35.7       35.5       35.2       34.8    
        34.9       34.9       34.8       34.7       34.5       34.7       34.7       34.8       34.8    
  28    36.8       36.7       36.6       36.4       36.2       36.0       35.7       35.5       35.4       35.2       35.0    
        34.9       34.9       34.8       34.7       34.5       34.6       34.7       34.8       34.8    
  29    36.6       36.5       36.4       36.2       36.0       35.7       35.5       35.4       35.3       35.1       35.0    
        34.9       34.8       34.7       34.6       34.5       34.6       34.7       34.7       34.8    
  30    36.4       36.3       36.2       36.0       35.8       35.5       35.1       35.2       35.1       35.0       34.9    
        34.8       34.8       34.7       34.6       34.5       34.6       34.6       34.7       34.7    
  31    36.3       36.2       36.0       35.9       35.7       35.4       35.2       35.1       35.0       34.9       34.8    
        34.8       34.7       34.6       34.5       34.4       34.5       34.6       34.7       34.7    
  32    36.2       36.0       35.9       35.7       35.5       35.3       35.1       35.0       34.9       34.8       34.7    
        34.6       34.6       34.5       34.5       34.4       34.5       34.6       34.6       34.6    
  33  -1000.       35.9       35.7       35.5       35.4       35.2       35.0       34.9       34.8       34.6       34.6    
        34.5       34.4       34.4       34.4       34.3       34.4       34.5       34.6       34.6    
  34  -1000.     -1000.       35.6       35.3       35.2       35.0       34.8       34.7       34.6       34.5       34.4    
        34.2       34.2       34.2       34.2       34.3       34.4       34.5       34.5       34.5    
  35  -1000.     -1000.     -1000.       35.1       34.9       34.7       34.6       34.5       34.3       34.2       34.1    
        34.0       33.8       34.0       34.1       34.2       34.3       34.4       34.5       34.5    
  36  -1000.     -1000.     -1000.     -1000.       34.6       34.4       34.3       34.2       34.1       34.0       33.9    
        33.8       33.8       33.9       34.0       34.1       34.2       34.3       34.4     -1000.    
  37  -1000.     -1000.     -1000.     -1000.       34.4       34.1       33.9       33.8       33.8       33.7       33.6    
        33.6       33.6       33.7       33.8       34.0       34.1       34.2       34.3     -1000.    
  38  -1000.     -1000.     -1000.     -1000.     -1000.       33.6       33.5       33.4       33.4       33.4       33.3    
        33.3       33.4       33.5       33.6       33.9       34.0       34.2     -1000.     -1000.    
  39  -1000.     -1000.     -1000.     -1000.     -1000.       33.1       33.1       33.0       33.0       33.0       33.0    
        33.0       33.0       33.1       33.3       33.8       33.9     -1000.     -1000.     -1000.    
  40  -1000.     -1000.     -1000.     -1000.     -1000.       32.5       32.5       32.5       32.5       32.5       32.5    
        32.5       32.5       32.5       32.5     -1000.     -1000.     -1000.     -1000.     -1000.    

     INITIAL HEAD FOR LAYER 3

               1          2          3          4          5          6          7          8          9         10         11
              12         13         14         15         16         17         18         19         20
 .............................................................................................................................
   1    39.4       39.4       39.2       39.0       38.8       38.5       38.2       37.9       37.6       37.2       36.9    
        36.6       36.2       35.9       35.5       35.1       35.2       35.3       35.3       35.3    
   2    39.4       39.4       39.2       39.0       38.8       38.5       38.2       37.9       37.6       37.2       36.9    
        36.6       36.2       35.9       35.5       35.1       35.2       35.3       35.3       35.3    
   3    39.5       39.4       39.2       39.0       38.8       38.5       38.2       37.9       37.5       37.2       36.8    
        36.5       36.2       35.8       35.5       35.1       35.2       35.2       35.3       35.3    
   4    39.5       39.4       39.3       39.0       38.8       38.5       38.2       37.8       37.5       37.1       36.8    
        36.4       36.1       35.8       35.4       35.1       35.2       35.2       35.3       35.3    
   5    39.6       39.5       39.3       39.1       38.8       38.5       38.2       37.8       37.4       37.0       36.7    
        36.4       36.1       35.7       35.4       35.1       35.1       35.2       35.2       35.3    
   6    39.6       39.6       39.4       39.2       38.9       38.5       38.1       37.7       37.3       36.9       36.6    
        36.3       36.0       35.7       35.4       35.0       35.1       35.1       35.2       35.2    
   7    39.7       39.6       39.5       39.2       38.9       38.5       38.1       37.6       37.2       36.8       36.5    
        36.2       35.9       35.6       35.3       35.0       35.0       35.1       35.1       35.2    
   8    39.8       39.7       39.6       39.4       39.0       38.5       38.1       37.5       37.0       36.6       36.3    
        36.1       35.8       35.5       35.2       34.9       34.9       35.0       35.1       35.1    
   9    39.9       39.9       39.8       39.7     -1000.     -1000.     -1000.       37.1       36.7       36.4       36.2    
        35.9       35.7       35.4       35.1       34.8       34.8       34.9       35.0       35.0    
  10    40.0       40.0       40.0       39.9     -1000.     -1000.     -1000.     -1000.       36.3       36.2       36.0    
        35.8       35.5       35.3       35.0       34.7       34.5       34.8       34.9       35.0    
  11    40.1       40.1       40.1       40.1     -1000.     -1000.     -1000.     -1000.       36.1       36.0       35.8    
        35.6       35.4       35.1       34.9       34.7       34.7       34.8       34.9       35.0    
  12    40.1       40.1       40.1       40.1     -1000.     -1000.     -1000.     -1000.       35.9       35.9       35.7    
        35.5       35.3       34.8       34.8       34.7       34.8       34.9       34.9       35.0    
  13    40.1       40.1       40.1       40.1     -1000.     -1000.     -1000.     -1000.       35.8       35.8       35.6    
        35.5       35.3       35.0       34.9       34.7       34.8       34.9       34.9       35.0    
  14    40.1       40.1       40.1       40.1     -1000.     -1000.     -1000.     -1000.       35.7       35.7       35.6    
        35.4       35.3       35.1       34.9       34.7       34.8       34.9       35.0       35.0    
  15    40.0       40.0       40.0       40.0     -1000.     -1000.     -1000.     -1000.       35.7       35.6       35.5    
        35.4       35.3       35.1       34.9       34.7       34.8       34.9       35.0       35.0    
  16    39.9       39.9       39.8       39.8     -1000.     -1000.     -1000.     -1000.       35.6       35.6       35.5    
        35.4       35.2       35.1       34.9       34.7       34.8       34.9       35.0       35.0    
  17    39.7       39.7       39.7       39.7     -1000.     -1000.     -1000.     -1000.       35.6       35.5       35.5    
        35.4       35.2       35.1       34.9       34.7       34.8       34.9       34.9       35.0    
  18    39.5       39.5       39.5       39.5     -1000.     -1000.     -1000.     -1000.       35.6       35.5       35.4    
        35.3       35.2       35.0       34.9       34.7       34.8       34.9       34.9       35.0    
  19    39.3       39.3       39.2       39.2     -1000.     -1000.     -1000.     -1000.       35.6       35.5       35.4    
        35.3       35.2       35.0       34.8       34.7       34.8       34.9       34.9       34.9    
  20    39.0       39.0       39.0       39.0     -1000.     -1000.     -1000.     -1000.       35.6       35.5       35.4    
        35.3       35.1       34.9       34.7       34.6       34.7       34.8       34.9       34.9    
  21    38.7       38.7       38.7       38.6     -1000.     -1000.     -1000.     -1000.       35.6       35.5       35.4    
        35.3       35.1       34.8       34.5       34.5       34.7       34.8       34.9       34.9    
  22    38.4       38.4       38.3       38.2     -1000.     -1000.       35.9       35.8       35.7       35.5       35.4    
        35.2       35.1       34.9       34.7       34.6       34.7       34.8       34.9       34.9    
  23    38.1       38.0       37.9       37.8       37.5     -1000.       36.0       35.9       35.7       35.5       35.4    
        35.2       35.1       34.9       34.7       34.6       34.7       34.8       34.8       34.9    
  24    37.8       37.7       37.6       37.4       37.1       36.6       36.2       35.9       35.7       35.5       35.3    
        35.2       35.1       34.9       34.8       34.6       34.7       34.8       34.8       34.9    
  25    37.5       37.4       37.3       37.1       36.8       36.4       36.1       35.9       35.7       35.4       35.3    
        35.1       35.0       34.9       34.8       34.6       34.7       34.8       34.8       34.9    
  26    37.2       37.2       37.1       36.8       36.6       36.3       36.1       35.8       35.6       35.3       35.1    
        35.0       35.0       34.9       34.7       34.6       34.7       34.8       34.8       34.8    
  27    37.0       36.9       36.8       36.6       36.4       36.2       35.9       35.7       35.5       35.2       34.8    
        34.9       34.9       34.8       34.7       34.6       34.7       34.7       34.8       34.8    
  28    36.8       36.7       36.6       36.4       36.2       36.0       35.7       35.5       35.4       35.2       35.0    
        34.9       34.9       34.8       34.7       34.5       34.6       34.7       34.8       34.8    
  29    36.6       36.5       36.4       36.2       36.0       35.7       35.5       35.4       35.3       35.1       35.0    
        34.9       34.8       34.7       34.6       34.5       34.6       34.7       34.7       34.8    
  30    36.4       36.3       36.2       36.0       35.8       35.5       35.1       35.2       35.1       35.0       34.9    
        34.8       34.8       34.7       34.6       34.5       34.6       34.6       34.7       34.7    
  31    36.3       36.2       36.0       35.9       35.6       35.4       35.2       35.1       35.0       34.9       34.8    
        34.8       34.7       34.6       34.5       34.4       34.5       34.6       34.7       34.7    
  32    36.2       36.0       35.9       35.7       35.5       35.3       35.1       35.0       34.9       34.8       34.7    
        34.6       34.6       34.5       34.5       34.4       34.5       34.6       34.6       34.6    
  33  -1000.       35.9       35.7       35.5       35.4       35.2       35.0       34.9       34.8       34.6       34.5    
        34.5       34.4       34.4       34.4       34.3       34.4       34.5       34.6       34.6    
  34  -1000.     -1000.       35.6       35.3       35.2       35.0       34.8       34.7       34.6       34.5       34.3    
        34.2       34.1       34.2       34.2       34.3       34.4       34.4       34.5       34.5    
  35  -1000.     -1000.     -1000.       35.1       34.9       34.7       34.6       34.5       34.3       34.2       34.1    
        34.0       33.7       34.0       34.1       34.2       34.3       34.4       34.5       34.5    
  36  -1000.     -1000.     -1000.     -1000.       34.6       34.4       34.3       34.2       34.1       34.0       33.9    
        33.8       33.8       33.9       34.0       34.1       34.2       34.3       34.4     -1000.    
  37  -1000.     -1000.     -1000.     -1000.       34.4       34.1       33.9       33.8       33.8       33.7       33.6    
        33.6       33.6       33.7       33.8       34.0       34.1       34.2       34.3     -1000.    
  38  -1000.     -1000.     -1000.     -1000.     -1000.       33.6       33.5       33.4       33.4       33.4       33.3    
        33.3       33.4       33.5       33.6       33.9       34.0       34.1     -1000.     -1000.    
  39  -1000.     -1000.     -1000.     -1000.     -1000.       33.1       33.1       33.0       33.0       33.0       33.0    
        33.0       33.0       33.1       33.3       33.8       33.9     -1000.     -1000.     -1000.    
  40  -1000.     -1000.     -1000.     -1000.     -1000.       32.6       32.6       32.6       32.6       32.6       32.6    
        32.6       32.6       32.6       32.6     -1000.     -1000.     -1000.     -1000.     -1000.    
 END PROCESSING GRIDDATA
 PROCESSING GRIDDATA

                ICELLTYPE = 1 FOR LAYER 1

                ICELLTYPE = 0 FOR LAYER 2

                ICELLTYPE = 0 FOR LAYER 3

 OPENED npf_k_0.dat
 FILE TYPE:OPEN/CLOSE   UNIT 1017   STATUS:OLD                 
 FORMAT:FORMATTED              ACCESS:SEQUENTIAL          
 ACTION:READ                


 OPENED npf_k_1.dat
 FILE TYPE:OPEN/CLOSE   UNIT 1018   STATUS:OLD                 
 FORMAT:FORMATTED              ACCESS:SEQUENTIAL          
 ACTION:READ                


 OPENED npf_k_2.dat
 FILE TYPE:OPEN/CLOSE   UNIT 1019   STATUS:OLD                 
 FORMAT:FORMATTED              ACCESS:SEQUENTIAL          
 ACTION:READ                


 OPENED npf_k33_0.dat
 FILE TYPE:OPEN/CLOSE   UNIT 1020   STATUS:OLD                 
 FORMAT:FORMATTED              ACCESS:SEQUENTIAL          
 ACTION:READ                


 OPENED npf_k33_1.dat
 FILE TYPE:OPEN/CLOSE   UNIT 1021   STATUS:OLD                 
 FORMAT:FORMATTED              ACCESS:SEQUENTIAL          
 ACTION:READ                


 OPENED npf_k33_2.dat
 FILE TYPE:OPEN/CLOSE   UNIT 1022   STATUS:OLD                 
 FORMAT:FORMATTED              ACCESS:SEQUENTIAL          
 ACTION:READ                

 K22 not provided.  Assuming K22 = K.
 END PROCESSING GRIDDATA

 STO -- STORAGE PACKAGE, VERSION 1, 5/19/2014 INPUT READ FROM UNIT 1008


 PROCESSING STORAGE OPTIONS
 END OF STORAGE OPTIONS
 PROCESSING GRIDDATA

                 ICONVERT = 1 FOR LAYER 1

                 ICONVERT = 0 FOR LAYER 2

                 ICONVERT = 0 FOR LAYER 3

 OPENED sto_ss_0.dat
 FILE TYPE:OPEN/CLOSE   UNIT 1023   STATUS:OLD                 
 FORMAT:FORMATTED              ACCESS:SEQUENTIAL          
 ACTION:READ                


 OPENED sto_ss_1.dat
 FILE TYPE:OPEN/CLOSE   UNIT 1024   STATUS:OLD                 
 FORMAT:FORMATTED              ACCESS:SEQUENTIAL          
 ACTION:READ                


 OPENED sto_ss_2.dat
 FILE TYPE:OPEN/CLOSE   UNIT 1025   STATUS:OLD                 
 FORMAT:FORMATTED              ACCESS:SEQUENTIAL          
 ACTION:READ                


 OPENED sto_sy_0.dat
 FILE TYPE:OPEN/CLOSE   UNIT 1026   STATUS:OLD                 
 FORMAT:FORMATTED              ACCESS:SEQUENTIAL          
 ACTION:READ                


 OPENED sto_sy_1.dat
 FILE TYPE:OPEN/CLOSE   UNIT 1027   STATUS:OLD                 
 FORMAT:FORMATTED              ACCESS:SEQUENTIAL          
 ACTION:READ                


 OPENED sto_sy_2.dat
 FILE TYPE:OPEN/CLOSE   UNIT 1028   STATUS:OLD                 
 FORMAT:FORMATTED              ACCESS:SEQUENTIAL          
 ACTION:READ                

 END PROCESSING GRIDDATA

The observation utility is active for "FREYBERG6"
No options block found in OBS input. Defaults will be used.

    BINARY GRID INFORMATION WILL BE WRITTEN TO:
      UNIT NUMBER: 1030
      FILE NAME: /home/parallels/Dev/mf6_pest_freyberg/template/freyberg6.dis.grb

 OPENED /home/parallels/Dev/mf6_pest_freyberg/template/freyberg6.dis.grb
 FILE TYPE:DATA(BINARY)   UNIT 1030   STATUS:REPLACE             
 FORMAT:UNFORMATTED            ACCESS:STREAM              
 ACTION:READWRITE           

      THE LAST TIME STEP WILL BE PRINTED
      THE LAST TIME STEP WILL BE PRINTED
 PROCESSING OC OPTIONS
    BUDGET INFORMATION WILL BE WRITTEN TO:
      UNIT NUMBER: 1031
      FILE NAME: freyberg6_freyberg.cbc

 OPENED freyberg6_freyberg.cbc
 FILE TYPE:DATA(BINARY)   UNIT 1031   STATUS:REPLACE             
 FORMAT:UNFORMATTED            ACCESS:STREAM              
 ACTION:READWRITE           

    HEAD INFORMATION WILL BE WRITTEN TO:
      UNIT NUMBER: 1032
      FILE NAME: freyberg6_freyberg.hds

 OPENED freyberg6_freyberg.hds
 FILE TYPE:DATA(BINARY)   UNIT 1032   STATUS:REPLACE             
 FORMAT:UNFORMATTED            ACCESS:STREAM              
 ACTION:READWRITE           

 END OF OC OPTIONS

The observation utility is active for "SFR_1"
No options block found in OBS input. Defaults will be used.


 PROCESSING SFR PACKAGEDATA
 END OF SFR PACKAGEDATA

 PROCESSING SFR CONNECTIONDATA
 END OF SFR CONNECTIONDATA


SFR STATIC REACH DATA
     REACH CELLID                            LENGTH      WIDTH      SLOPE        TOP  THICKNESS         HK  ROUGHNESS  USTR FRAC
--------------------------------------------------------------------------------------------------------------------------------
         1 (1,1,16)                        250.0000     5.0000  0.500E-04    34.0000     1.0000  0.100      0.300E-01     1.0000
         2 (1,2,16)                        250.0000     5.0000  0.500E-04    33.9872     1.0000  0.100      0.300E-01     1.0000
         3 (1,3,16)                        250.0000     5.0000  0.500E-04    33.9744     1.0000  0.100      0.300E-01     1.0000
         4 (1,4,16)                        250.0000     5.0000  0.500E-04    33.9615     1.0000  0.100      0.300E-01     1.0000
         5 (1,5,16)                        250.0000     5.0000  0.500E-04    33.9487     1.0000  0.100      0.300E-01     1.0000
         6 (1,6,16)                        250.0000     5.0000  0.500E-04    33.9359     1.0000  0.100      0.300E-01     1.0000
         7 (1,7,16)                        250.0000     5.0000  0.500E-04    33.9231     1.0000  0.100      0.300E-01     1.0000
         8 (1,8,16)                        250.0000     5.0000  0.500E-04    33.9103     1.0000  0.100      0.300E-01     1.0000
         9 (1,9,16)                        250.0000     5.0000  0.500E-04    33.8974     1.0000  0.100      0.300E-01     1.0000
        10 (1,10,16)                       250.0000     5.0000  0.500E-04    33.8846     1.0000  0.100      0.300E-01     1.0000
        11 (1,11,16)                       250.0000     5.0000  0.500E-04    33.8718     1.0000  0.100      0.300E-01     1.0000
        12 (1,12,16)                       250.0000     5.0000  0.500E-04    33.8590     1.0000  0.100      0.300E-01     1.0000
        13 (1,13,16)                       250.0000     5.0000  0.500E-04    33.8462     1.0000  0.100      0.300E-01     1.0000
        14 (1,14,16)                       250.0000     5.0000  0.500E-04    33.8333     1.0000  0.100      0.300E-01     1.0000
        15 (1,15,16)                       250.0000     5.0000  0.500E-04    33.8205     1.0000  0.100      0.300E-01     1.0000
        16 (1,16,16)                       250.0000     5.0000  0.500E-04    33.8077     1.0000  0.100      0.300E-01     1.0000
        17 (1,17,16)                       250.0000     5.0000  0.500E-04    33.7949     1.0000  0.100      0.300E-01     1.0000
        18 (1,18,16)                       250.0000     5.0000  0.500E-04    33.7820     1.0000  0.100      0.300E-01     1.0000
        19 (1,19,16)                       250.0000     5.0000  0.500E-04    33.7692     1.0000  0.100      0.300E-01     1.0000
        20 (1,20,16)                       250.0000     5.0000  0.500E-04    33.7564     1.0000  0.100      0.300E-01     1.0000
        21 (1,21,16)                       250.0000     5.0000  0.500E-04    33.7436     1.0000  0.100      0.300E-01     1.0000
        22 (1,22,16)                       250.0000     5.0000  0.500E-04    33.7308     1.0000  0.100      0.300E-01     1.0000
        23 (1,23,16)                       250.0000     5.0000  0.500E-04    33.7180     1.0000  0.100      0.300E-01     1.0000
        24 (1,24,16)                       250.0000     5.0000  0.500E-04    33.7051     1.0000  0.100      0.300E-01     1.0000
        25 (1,25,16)                       250.0000     5.0000  0.500E-04    33.6923     1.0000  0.100      0.300E-01     1.0000
        26 (1,26,16)                       250.0000     5.0000  0.500E-04    33.6795     1.0000  0.100      0.300E-01     1.0000
        27 (1,27,16)                       250.0000     5.0000  0.500E-04    33.6667     1.0000  0.100      0.300E-01     1.0000
        28 (1,28,16)                       250.0000     5.0000  0.500E-04    33.6538     1.0000  0.100      0.300E-01     1.0000
        29 (1,29,16)                       250.0000     5.0000  0.500E-04    33.6410     1.0000  0.100      0.300E-01     1.0000
        30 (1,30,16)                       250.0000     5.0000  0.500E-04    33.6282     1.0000  0.100      0.300E-01     1.0000
        31 (1,31,16)                       250.0000     5.0000  0.500E-04    33.6154     1.0000  0.100      0.300E-01     1.0000
        32 (1,32,16)                       250.0000     5.0000  0.500E-04    33.6026     1.0000  0.100      0.300E-01     1.0000
        33 (1,33,16)                       250.0000     5.0000  0.500E-04    33.5897     1.0000  0.100      0.300E-01     1.0000
        34 (1,34,16)                       250.0000     5.0000  0.500E-04    33.5769     1.0000  0.100      0.300E-01     1.0000
        35 (1,35,16)                       250.0000     5.0000  0.500E-04    33.5641     1.0000  0.100      0.300E-01     1.0000
        36 (1,36,16)                       250.0000     5.0000  0.500E-04    33.5513     1.0000  0.100      0.300E-01     1.0000
        37 (1,37,16)                       250.0000     5.0000  0.500E-04    33.5385     1.0000  0.100      0.300E-01     1.0000
        38 (1,38,16)                       250.0000     5.0000  0.500E-04    33.5256     1.0000  0.100      0.300E-01     1.0000
        39 (1,39,16)                       250.0000     5.0000  0.500E-04    33.5128     1.0000  0.100      0.300E-01     1.0000
        40 (1,40,16)                       250.0000     5.0000  0.500E-04    33.5100     1.0000  0.100      0.300E-01     1.0000
--------------------------------------------------------------------------------------------------------------------------------


SFR REACH CONNECTION DATA
                                                           CONNECTED REACH DATA
REACH    1    2    3    4    5    6    7    8    9   10   11   12   13   14   15   16   17   18   19   20   21   22   23   24                                                                                                                                                                               
--------------------------------------------------------------------------------------------------------------------------------
    1    2
    2    1    3
    3    2    4
    4    3    5
    5    4    6
    6    5    7
    7    6    8
    8    7    9
    9    8   10
   10    9   11
   11   10   12
   12   11   13
   13   12   14
   14   13   15
   15   14   16
   16   15   17
   17   16   18
   18   17   19
   19   18   20
   20   19   21
   21   20   22
   22   21   23
   23   22   24
   24   23   25
   25   24   26
   26   25   27
   27   26   28
   28   27   29
   29   28   30
   30   29   31
   31   30   32
   32   31   33
   33   32   34
   34   33   35
   35   34   36
   36   35   37
   37   36   38
   38   37   39
   39   38   40
   40   39
--------------------------------------------------------------------------------------------------------------------------------


SFR DOWNSTREAM CONNECTIONS
                                                            DOWNSTREAM REACHES
REACH    1    2    3    4    5    6    7    8    9   10   11   12   13   14   15   16   17   18   19   20   21   22   23   24                                                                                                                                                                               
--------------------------------------------------------------------------------------------------------------------------------
    1    2
    2    3
    3    4
    4    5
    5    6
    6    7
    7    8
    8    9
    9   10
   10   11
   11   12
   12   13
   13   14
   14   15
   15   16
   16   17
   17   18
   18   19
   19   20
   20   21
   21   22
   22   23
   23   24
   24   25
   25   26
   26   27
   27   28
   28   29
   29   30
   30   31
   31   32
   32   33
   33   34
   34   35
   35   36
   36   37
   37   38
   38   39
   39   40
   40
--------------------------------------------------------------------------------------------------------------------------------


SFR UPSTREAM CONNECTIONS
                                                             UPSTREAM REACHES
REACH    1    2    3    4    5    6    7    8    9   10   11   12   13   14   15   16   17   18   19   20   21   22   23   24                                                                                                                                                                               
--------------------------------------------------------------------------------------------------------------------------------
    1
    2    1
    3    2
    4    3
    5    4
    6    5
    7    6
    8    7
    9    8
   10    9
   11   10
   12   11
   13   12
   14   13
   15   14
   16   15
   17   16
   18   17
   19   18
   20   19
   21   20
   22   21
   23   22
   24   23
   25   24
   26   25
   27   26
   28   27
   29   28
   30   29
   31   30
   32   31
   33   32
   34   33
   35   34
   36   35
   37   36
   38   37
   39   38
   40   39
--------------------------------------------------------------------------------------------------------------------------------


SFR UPSTREAM FRACTIONS
                                               CONNECTED REACHES UPSTREAM FRACTIONS
REACH    1  FRACTION    2  FRACTION    3  FRACTION    4  FRACTION    5  FRACTION    6  FRACTION    7  FRACTION    8  FRACTION                                                                                                                                                                               
--------------------------------------------------------------------------------------------------------------------------------
    1    2    1.0000                                                                                                                                                                                                                                                                                        
    2    3    1.0000                                                                                                                                                                                                                                                                                        
    3    4    1.0000                                                                                                                                                                                                                                                                                        
    4    5    1.0000                                                                                                                                                                                                                                                                                        
[...]

           IN:                                      IN:
           ---                                      ---
              STO-SS =        2710.4060                STO-SS =       3.5371E-02     STORAGE         
              STO-SY =      423162.6734                STO-SY =           6.2683     STORAGE         
                 WEL =           0.0000                   WEL =           0.0000     WEL-1           
                 GHB =           0.0000                   GHB =           0.0000     GHB-1           
                 RCH =     1711420.0715                   RCH =        2436.4020     RCH-1           
                 SFR =           0.0000                   SFR =           0.0000     SFR_1           

            TOTAL IN =     2137293.1508              TOTAL IN =        2442.7057

          OUT:                                     OUT:
          ----                                     ----
              STO-SS =        2135.2528                STO-SS =           3.0272     STORAGE         
              STO-SY =      332764.5291                STO-SY =         463.9372     STORAGE         
                 WEL =      746570.0361                   WEL =        1205.1421     WEL-1           
                 GHB =      293001.9481                   GHB =         261.1346     GHB-1           
                 RCH =           0.0000                   RCH =           0.0000     RCH-1           
                 SFR =      764242.6031                   SFR =         504.8765     SFR_1           

           TOTAL OUT =     2138714.3692             TOTAL OUT =        2438.1176

            IN - OUT =       -1421.2184              IN - OUT =           4.5881

 PERCENT DISCREPANCY =          -0.07     PERCENT DISCREPANCY =           0.19




         TIME SUMMARY AT END OF TIME STEP    1 IN STRESS PERIOD   23
                    SECONDS     MINUTES      HOURS       DAYS        YEARS
                    -----------------------------------------------------------
   TIME STEP LENGTH 2.67840E+06  44640.      744.00      31.000     8.48734E-02
 STRESS PERIOD TIME 2.67840E+06  44640.      744.00      31.000     8.48734E-02
         TOTAL TIME 5.79744E+07 9.66240E+05  16104.      671.00      1.8371    

 OUTPUT CONTROL FOR STRESS PERIOD 24 IS REPEATED USING SETTINGS FROM A PREVIOUS STRESS PERIOD.


 STRESS PERIOD 24 IS TRANSIENT


 WEL NO.  LAYER    ROW    COL     STRESS RATE         
 -----------------------------------------------------
      1      3     10     17      -139.5    
      2      3     12     14      -139.5    
      3      3     21     15      -139.5    
      4      3     27     11      -139.5    
      5      3     30      7      -139.5    
      6      3     35     13      -139.5    

 REUSING GHBS FROM LAST STRESS PERIOD

                 RECHARGE =  0.7548773E-04

 READING SFR DATA FOR PERIOD     24

        REACH KEYWORD AND DATA
   ------------------------------------------------------------------------------
            1 INFLOW  128.485382080078

 END OF SFR DATA FOR PERIOD     24

 UBDSV1 SAVING     FLOW-JA-FACE ON UNIT   1031 AT TIME STEP      1, STRESS PERIOD     24
 UBDSV06 SAVING              WEL IN MODEL FREYBERG6        PACKAGE FREYBERG6       CONNECTED TO MODEL FREYBERG6        PACKAGE WEL-1            ON UNIT   1031 AT TIME STEP      1, STRESS PERIOD     24

              WEL (WEL-1)   PERIOD 24   STEP 1
 BOUNDARY        1  CELL            (3,10,17)   RATE    -139.537    
 BOUNDARY        2  CELL            (3,12,14)   RATE    -139.537    
 BOUNDARY        3  CELL            (3,21,15)   RATE    -139.537    
 BOUNDARY        4  CELL            (3,27,11)   RATE    -139.537    
 BOUNDARY        5  CELL             (3,30,7)   RATE    -139.537    
 BOUNDARY        6  CELL            (3,35,13)   RATE    -139.537    

 UBDSV06 SAVING              GHB IN MODEL FREYBERG6        PACKAGE FREYBERG6       CONNECTED TO MODEL FREYBERG6        PACKAGE GHB-1            ON UNIT   1031 AT TIME STEP      1, STRESS PERIOD     24

              GHB (GHB-1)   PERIOD 24   STEP 1
 BOUNDARY        1  CELL             (1,40,6)   RATE    -11.9582    
 BOUNDARY        2  CELL             (1,40,7)   RATE    -11.8452    
 BOUNDARY        3  CELL             (1,40,8)   RATE    -11.6582    
 BOUNDARY        4  CELL             (1,40,9)   RATE    -11.4405    
 BOUNDARY        5  CELL            (1,40,10)   RATE    -11.2298    
 BOUNDARY        6  CELL            (1,40,11)   RATE    -11.0495    
 BOUNDARY        7  CELL            (1,40,12)   RATE    -10.9245    
 BOUNDARY        8  CELL            (1,40,13)   RATE    -10.8870    
 BOUNDARY        9  CELL            (1,40,14)   RATE    -10.9911    
 BOUNDARY       10  CELL            (1,40,15)   RATE    -11.3139    
 BOUNDARY       11  CELL             (2,40,6)   RATE    -12.3518    
 BOUNDARY       12  CELL             (2,40,7)   RATE    -12.2334    
 BOUNDARY       13  CELL             (2,40,8)   RATE    -12.0374    
 BOUNDARY       14  CELL             (2,40,9)   RATE    -11.8094    
 BOUNDARY       15  CELL            (2,40,10)   RATE    -11.5889    
 BOUNDARY       16  CELL            (2,40,11)   RATE    -11.4003    
 BOUNDARY       17  CELL            (2,40,12)   RATE    -11.2695    
 BOUNDARY       18  CELL            (2,40,13)   RATE    -11.2304    
 BOUNDARY       19  CELL            (2,40,14)   RATE    -11.3395    
 BOUNDARY       20  CELL            (2,40,15)   RATE    -11.6777    
 BOUNDARY       21  CELL             (3,40,6)   RATE    -13.3945    
 BOUNDARY       22  CELL             (3,40,7)   RATE    -13.2655    
 BOUNDARY       23  CELL             (3,40,8)   RATE    -13.0512    
 BOUNDARY       24  CELL             (3,40,9)   RATE    -12.8018    
 BOUNDARY       25  CELL            (3,40,10)   RATE    -12.5628    
 BOUNDARY       26  CELL            (3,40,11)   RATE    -12.3585    
 BOUNDARY       27  CELL            (3,40,12)   RATE    -12.2175    
 BOUNDARY       28  CELL            (3,40,13)   RATE    -12.1746    
 BOUNDARY       29  CELL            (3,40,14)   RATE    -12.2947    
 BOUNDARY       30  CELL            (3,40,15)   RATE    -12.6657    

 UBDSV06 SAVING              RCH IN MODEL FREYBERG6        PACKAGE FREYBERG6       CONNECTED TO MODEL FREYBERG6        PACKAGE RCH-1            ON UNIT   1031 AT TIME STEP      1, STRESS PERIOD     24
 UBDSV06 SAVING              SFR IN MODEL FREYBERG6        PACKAGE FREYBERG6       CONNECTED TO MODEL FREYBERG6        PACKAGE SFR_1            ON UNIT   1031 AT TIME STEP      1, STRESS PERIOD     24

 HEAD WILL BE SAVED ON UNIT 1032 AT END OF TIME STEP    1, STRESS PERIOD   24


  SFR_1 BUDGET FOR ENTIRE MODEL AT END OF TIME STEP    1, STRESS PERIOD  24
  ------------------------------------------------------------------------------

     CUMULATIVE SFR_1      L**3       RATES FOR THIS TIME STEP      L**3/T
     ------------------                 ------------------------

           IN:                                      IN:
           ---                                      ---
          EXT-INFLOW =       69870.5673            EXT-INFLOW =         128.4854
            RAINFALL =           0.0000              RAINFALL =           0.0000
              RUNOFF =           0.0000                RUNOFF =           0.0000
                 GWF =      789176.0451                   GWF =         802.0850
         EVAPORATION =           0.0000           EVAPORATION =           0.0000
         EXT-OUTFLOW =           0.0000           EXT-OUTFLOW =           0.0000

            TOTAL IN =      859046.6125              TOTAL IN =         930.5704

          OUT:                                     OUT:
          ----                                     ----
          EXT-INFLOW =           0.0000            EXT-INFLOW =           0.0000
            RAINFALL =           0.0000              RAINFALL =           0.0000
              RUNOFF =           0.0000                RUNOFF =           0.0000
                 GWF =           0.0000                   GWF =           0.0000
         EVAPORATION =           0.0000           EVAPORATION =           0.0000
         EXT-OUTFLOW =      859046.6125           EXT-OUTFLOW =         930.5704

           TOTAL OUT =      859046.6125             TOTAL OUT =         930.5704

            IN - OUT =           0.0000              IN - OUT =       1.1369E-13

 PERCENT DISCREPANCY =           0.00     PERCENT DISCREPANCY =           0.00



  VOLUME BUDGET FOR ENTIRE MODEL AT END OF TIME STEP    1, STRESS PERIOD  24
  ---------------------------------------------------------------------------------------------------

     CUMULATIVE VOLUME      L**3       RATES FOR THIS TIME STEP      L**3/T          PACKAGE NAME    
     ------------------                 ------------------------                     ----------------

           IN:                                      IN:
           ---                                      ---
              STO-SS =        2710.4060                STO-SS =           0.0000     STORAGE         
              STO-SY =      423162.6734                STO-SY =           0.0000     STORAGE         
                 WEL =           0.0000                   WEL =           0.0000     WEL-1           
                 GHB =           0.0000                   GHB =           0.0000     GHB-1           
                 RCH =     1811346.9541                   RCH =        3330.8961     RCH-1           
                 SFR =           0.0000                   SFR =           0.0000     SFR_1           

            TOTAL IN =     2237220.0334              TOTAL IN =        3330.8961

          OUT:                                     OUT:
          ----                                     ----
              STO-SS =        2386.1486                STO-SS =           8.3632     STORAGE         
              STO-SY =      371833.1396                STO-SY =        1302.2870     STORAGE         
                 WEL =      771686.7465                   WEL =         837.2237     WEL-1           
                 GHB =      303712.6390                   GHB =         357.0230     GHB-1           
                 RCH =           0.0000                   RCH =           0.0000     RCH-1           
                 SFR =      788738.7754                   SFR =         816.5391     SFR_1           

           TOTAL OUT =     2238357.4491             TOTAL OUT =        3321.4360

            IN - OUT =       -1137.4157              IN - OUT =           9.4601

 PERCENT DISCREPANCY =          -0.05     PERCENT DISCREPANCY =           0.28




         TIME SUMMARY AT END OF TIME STEP    1 IN STRESS PERIOD   24
                    SECONDS     MINUTES      HOURS       DAYS        YEARS
                    -----------------------------------------------------------
   TIME STEP LENGTH 2.59200E+06  43200.      720.00      30.000     8.21355E-02
 STRESS PERIOD TIME 2.59200E+06  43200.      720.00      30.000     8.21355E-02
         TOTAL TIME 6.05664E+07 1.00944E+06  16824.      701.00      1.9192    

 OUTPUT CONTROL FOR STRESS PERIOD 25 IS REPEATED USING SETTINGS FROM A PREVIOUS STRESS PERIOD.


 STRESS PERIOD 25 IS TRANSIENT


 WEL NO.  LAYER    ROW    COL     STRESS RATE         
 -----------------------------------------------------
      1      3     10     17      -88.54    
      2      3     12     14      -88.54    
      3      3     21     15      -88.54    
      4      3     27     11      -88.54    
      5      3     30      7      -88.54    
      6      3     35     13      -88.54    

 REUSING GHBS FROM LAST STRESS PERIOD

                 RECHARGE =  0.9088677E-04

 READING SFR DATA FOR PERIOD     25

        REACH KEYWORD AND DATA
   ------------------------------------------------------------------------------
            1 INFLOW  154.695617675781

 END OF SFR DATA FOR PERIOD     25

 UBDSV1 SAVING     FLOW-JA-FACE ON UNIT   1031 AT TIME STEP      1, STRESS PERIOD     25
 UBDSV06 SAVING              WEL IN MODEL FREYBERG6        PACKAGE FREYBERG6       CONNECTED TO MODEL FREYBERG6        PACKAGE WEL-1            ON UNIT   1031 AT TIME STEP      1, STRESS PERIOD     25

              WEL (WEL-1)   PERIOD 25   STEP 1
 BOUNDARY        1  CELL            (3,10,17)   RATE    -88.5429    
 BOUNDARY        2  CELL            (3,12,14)   RATE    -88.5429    
 BOUNDARY        3  CELL            (3,21,15)   RATE    -88.5429    
 BOUNDARY        4  CELL            (3,27,11)   RATE    -88.5429    
 BOUNDARY        5  CELL             (3,30,7)   RATE    -88.5429    
 BOUNDARY        6  CELL            (3,35,13)   RATE    -88.5429    

 UBDSV06 SAVING              GHB IN MODEL FREYBERG6        PACKAGE FREYBERG6       CONNECTED TO MODEL FREYBERG6        PACKAGE GHB-1            ON UNIT   1031 AT TIME STEP      1, STRESS PERIOD     25

              GHB (GHB-1)   PERIOD 25   STEP 1
 BOUNDARY        1  CELL             (1,40,6)   RATE    -15.7642    
 BOUNDARY        2  CELL             (1,40,7)   RATE    -15.6412    
 BOUNDARY        3  CELL             (1,40,8)   RATE    -15.4412    
 BOUNDARY        4  CELL             (1,40,9)   RATE    -15.2141    
 BOUNDARY        5  CELL            (1,40,10)   RATE    -15.0002    
 BOUNDARY        6  CELL            (1,40,11)   RATE    -14.8175    
 BOUNDARY        7  CELL            (1,40,12)   RATE    -14.6844    
 BOUNDARY        8  CELL            (1,40,13)   RATE    -14.6308    
 BOUNDARY        9  CELL            (1,40,14)   RATE    -14.7225    
 BOUNDARY       10  CELL            (1,40,15)   RATE    -15.0750    
 BOUNDARY       11  CELL             (2,40,6)   RATE    -16.3053    
 BOUNDARY       12  CELL             (2,40,7)   RATE    -16.1763    
 BOUNDARY       13  CELL             (2,40,8)   RATE    -15.9665    
 BOUNDARY       14  CELL             (2,40,9)   RATE    -15.7283    
 BOUNDARY       15  CELL            (2,40,10)   RATE    -15.5040    
 BOUNDARY       16  CELL            (2,40,11)   RATE    -15.3125    
 BOUNDARY       17  CELL            (2,40,12)   RATE    -15.1730    
 BOUNDARY       18  CELL            (2,40,13)   RATE    -15.1166    
 BOUNDARY       19  CELL            (2,40,14)   RATE    -15.2127    
 BOUNDARY       20  CELL            (2,40,15)   RATE    -15.5821    
 BOUNDARY       21  CELL             (3,40,6)   RATE    -17.7039    
 BOUNDARY       22  CELL             (3,40,7)   RATE    -17.5635    
 BOUNDARY       23  CELL             (3,40,8)   RATE    -17.3342    
 BOUNDARY       24  CELL             (3,40,9)   RATE    -17.0738    
 BOUNDARY       25  CELL            (3,40,10)   RATE    -16.8312    
 BOUNDARY       26  CELL            (3,40,11)   RATE    -16.6245    
 BOUNDARY       27  CELL            (3,40,12)   RATE    -16.4746    
 BOUNDARY       28  CELL            (3,40,13)   RATE    -16.4123    
 BOUNDARY       29  CELL            (3,40,14)   RATE    -16.5180    
 BOUNDARY       30  CELL            (3,40,15)   RATE    -16.9235    

 UBDSV06 SAVING              RCH IN MODEL FREYBERG6        PACKAGE FREYBERG6       CONNECTED TO MODEL FREYBERG6        PACKAGE RCH-1            ON UNIT   1031 AT TIME STEP      1, STRESS PERIOD     25
 UBDSV06 SAVING              SFR IN MODEL FREYBERG6        PACKAGE FREYBERG6       CONNECTED TO MODEL FREYBERG6        PACKAGE SFR_1            ON UNIT   1031 AT TIME STEP      1, STRESS PERIOD     25

 HEAD WILL BE SAVED ON UNIT 1032 AT END OF TIME STEP    1, STRESS PERIOD   25


  SFR_1 BUDGET FOR ENTIRE MODEL AT END OF TIME STEP    1, STRESS PERIOD  25
  ------------------------------------------------------------------------------

     CUMULATIVE SFR_1      L**3       RATES FOR THIS TIME STEP      L**3/T
     ------------------                 ------------------------

           IN:                                      IN:
           ---                                      ---
          EXT-INFLOW =       74666.1315            EXT-INFLOW =         154.6956
            RAINFALL =           0.0000              RAINFALL =           0.0000
              RUNOFF =           0.0000                RUNOFF =           0.0000
                 GWF =      826663.4573                   GWF =        1209.2714
         EVAPORATION =           0.0000           EVAPORATION =           0.0000
         EXT-OUTFLOW =           0.0000           EXT-OUTFLOW =           0.0000

            TOTAL IN =      901329.5888              TOTAL IN =        1363.9670

          OUT:                                     OUT:
          ----                                     ----
          EXT-INFLOW =           0.0000            EXT-INFLOW =           0.0000
            RAINFALL =           0.0000              RAINFALL =           0.0000
              RUNOFF =           0.0000                RUNOFF =           0.0000
                 GWF =           0.0000                   GWF =           0.0000
         EVAPORATION =           0.0000           EVAPORATION =           0.0000
         EXT-OUTFLOW =      901329.5888           EXT-OUTFLOW =        1363.9670

           TOTAL OUT =      901329.5888             TOTAL OUT =        1363.9670

            IN - OUT =           0.0000              IN - OUT =       2.2737E-13

 PERCENT DISCREPANCY =           0.00     PERCENT DISCREPANCY =           0.00



  VOLUME BUDGET FOR ENTIRE MODEL AT END OF TIME STEP    1, STRESS PERIOD  25
  ---------------------------------------------------------------------------------------------------

     CUMULATIVE VOLUME      L**3       RATES FOR THIS TIME STEP      L**3/T          PACKAGE NAME    
     ------------------                 ------------------------                     ----------------

           IN:                                      IN:
           ---                                      ---
              STO-SS =        2710.4060                STO-SS =           0.0000     STORAGE         
              STO-SY =      423162.6734                STO-SY =           0.0000     STORAGE         
                 WEL =           0.0000                   WEL =           0.0000     WEL-1           
                 GHB =           0.0000                   GHB =           0.0000     GHB-1           
                 RCH =     1935668.6946                   RCH =        4010.3787     RCH-1           
                 SFR =           0.0000                   SFR =           0.0000     SFR_1           

            TOTAL IN =     2361541.7739              TOTAL IN =        4010.3787

          OUT:                                     OUT:
          ----                                     ----
              STO-SS =        2734.6952                STO-SS =          11.2434     STORAGE         
              STO-SY =      426219.5388                STO-SY =        1754.4000     STORAGE         
                 WEL =      788155.7287                   WEL =         531.2575     WEL-1           
                 GHB =      318485.0000                   GHB =         476.5278     GHB-1           
                 RCH =           0.0000                   RCH =           0.0000     RCH-1           
                 SFR =      826728.0770                   SFR =        1225.4613     SFR_1           

           TOTAL OUT =     2362323.0398             TOTAL OUT =        3998.8900

            IN - OUT =        -781.2658              IN - OUT =          11.4887

 PERCENT DISCREPANCY =          -0.03     PERCENT DISCREPANCY =           0.29




         TIME SUMMARY AT END OF TIME STEP    1 IN STRESS PERIOD   25
                    SECONDS     MINUTES      HOURS       DAYS        YEARS
                    -----------------------------------------------------------
   TIME STEP LENGTH 2.67840E+06  44640.      744.00      31.000     8.48734E-02
 STRESS PERIOD TIME 2.67840E+06  44640.      744.00      31.000     8.48734E-02
         TOTAL TIME 6.32448E+07 1.05408E+06  17568.      732.00      2.0041    
