                                   MODFLOW 6
                U.S. GEOLOGICAL SURVEY MODULAR HYDROLOGIC MODEL
                            VERSION 6.1.0 12/12/2019

   MODFLOW 6 compiled Dec 12 2019 13:30:12 with IFORT compiler (ver. 19.0.5)

This software has been approved for release by the U.S. Geological 
Survey (USGS). Although the software has been subjected to rigorous 
review, the USGS reserves the right to update the software as needed 
pursuant to further analysis and review. No warranty, expressed or 
implied, is made by the USGS or the U.S. Government as to the 
functionality of the software and related material nor shall the 
fact of release constitute any such warranty. Furthermore, the 
software is released on condition that neither the USGS nor the U.S. 
Government shall be held liable for any damages resulting from its 
authorized or unauthorized use. Also refer to the USGS Water 
Resources Software User Rights Notice for complete use, copyright, 
and distribution information.


System command used to initiate simulation:
mf6

MODFLOW was compiled using uniform precision.
Real Variables
  PRECISION: 15
  KIND: 8
  TINY (smallest non-zero value):    2.225074-308
  HUGE (largest value):    1.797693+308
Integer Variables
  KIND: 4
  HUGE (largest value): 2147483647
  BIT_SIZE: 32
 

 OPENED mfsim.nam
 FILE TYPE:NAM   UNIT 1001   STATUS:OLD                 
 FORMAT:FORMATTED              ACCESS:SEQUENTIAL          
 ACTION:READ                


 READING SIMULATION OPTIONS
    SIMULATION WILL CONTINUE EVEN IF THERE IS NONCONVERGENCE.
 END OF SIMULATION OPTIONS

 READING SIMULATION TIMING

 OPENED freyberg6.tdis
 FILE TYPE:TDIS   UNIT 1002   STATUS:OLD                 
 FORMAT:FORMATTED              ACCESS:SEQUENTIAL          
 ACTION:READ                


 TDIS -- TEMPORAL DISCRETIZATION PACKAGE,
 VERSION 1 : 11/13/2014 - INPUT READ FROM UNIT 1002
 PROCESSING TDIS OPTIONS
    SIMULATION TIME UNIT IS DAYS
 END OF TDIS OPTIONS
 PROCESSING TDIS DIMENSIONS
   25 STRESS PERIOD(S) IN SIMULATION
 END OF TDIS DIMENSIONS
 PROCESSING TDIS PERIODDATA


 STRESS PERIOD     LENGTH       TIME STEPS     MULTIPLIER FOR DELT
 ----------------------------------------------------------------------------
        1         1.000000          1                    1.000
        2         31.00000          1                    1.000
        3         29.00000          1                    1.000
        4         31.00000          1                    1.000
        5         30.00000          1                    1.000
        6         31.00000          1                    1.000
        7         30.00000          1                    1.000
        8         31.00000          1                    1.000
        9         31.00000          1                    1.000
       10         30.00000          1                    1.000
       11         31.00000          1                    1.000
       12         30.00000          1                    1.000
       13         31.00000          1                    1.000
       14         31.00000          1                    1.000
       15         28.00000          1                    1.000
       16         31.00000          1                    1.000
       17         30.00000          1                    1.000
       18         31.00000          1                    1.000
       19         30.00000          1                    1.000
       20         31.00000          1                    1.000
       21         31.00000          1                    1.000
       22         30.00000          1                    1.000
       23         31.00000          1                    1.000
       24         30.00000          1                    1.000
       25         31.00000          1                    1.000
 END OF TDIS PERIODDATA
 END OF SIMULATION TIMING

 READING SIMULATION MODELS
    GWF6 model FREYBERG6 will be created as model 1
 END OF SIMULATION MODELS

 READING SIMULATION EXCHANGES
 END OF SIMULATION EXCHANGES

 READING SOLUTIONGROUP

 Creating solution: SLN_1           

 OPENED freyberg6.ims
 FILE TYPE:IMS   UNIT 1015   STATUS:OLD                 
 FORMAT:FORMATTED              ACCESS:SEQUENTIAL          
 ACTION:READ                

 END OF SIMULATION SOLUTIONGROUP

 IMS -- ITERATIVE MODEL SOLUTION PACKAGE, VERSION 6, 4/28/2017
         INPUT READ FROM UNIT 1015

 PROCESSING IMS OPTIONS
 SIMPLE OPTION:
 DEFAULT SOLVER INPUT VALUES FOR FAST SOLUTIONS
 END OF IMS OPTIONS

 PROCESSING IMS NONLINEAR
 END OF IMS NONLINEAR DATA
 **UNDER-RELAXATION WILL BE USED***
 
 ***IMS LINEAR SOLVER WILL BE USED***

 IMSLINEAR -- UNSTRUCTURED LINEAR SOLUTION PACKAGE, VERSION 8, 04/28/2017

 PROCESSING LINEAR DATA
 END OF LINEAR DATA
 
 OUTER ITERATION CONVERGENCE CRITERION     (HCLOSE) =    0.100000E-01
 OUTER ITERATION BOUNDARY FLOW RESIDUAL (RCLOSEBND) =    0.100000E+00
 MAXIMUM NUMBER OF OUTER ITERATIONS        (MXITER) =       100
 SOLVER PRINTOUT INDEX                     (IPRIMS) =         1
 NONLINEAR ITERATION METHOD            (NONLINMETH) =         3
 LINEAR SOLUTION METHOD                   (LINMETH) =         1
 UNDER-RELAXATION WEIGHT REDUCTION FACTOR   (THETA) =    0.850000E+00
 UNDER-RELAXATION WEIGHT INCREASE INCREMENT (KAPPA) =    0.100000E-04
 UNDER-RELAXATION PREVIOUS HISTORY FACTOR   (GAMMA) =    0.000000E+00
 UNDER-RELAXATIONMOMENTUM TERM          (AMOMENTUM) =    0.100000E+00
    MAXIMUM NUMBER OF BACKTRACKS         (NUMTRACK) =        50
 BACKTRACKING TOLERANCE FACTOR               (BTOL) =    0.110000E+01
 BACKTRACKING REDUCTION FACTOR             (BREDUC) =    0.700000E+00
 BACKTRACKING RESIDUAL LIMIT              (RES_LIM) =    0.100000E+03

       SOLUTION BY THE BICONJUGATE-GRADIENT STABILIZED METHOD
 ------------------------------------------------------------------
 MAXIMUM OF    100 CALLS OF SOLUTION ROUTINE
 MAXIMUM OF     50 INTERNAL ITERATIONS PER CALL TO SOLUTION ROUTINE
 LINEAR ACCELERATION METHOD            = BCGS      
 MATRIX PRECONDITIONING TYPE           = INCOMPLETE LUT      
 MATRIX SCALING APPROACH               = NO SCALING          
 MATRIX REORDERING APPROACH            = RCM ORDERING             
 NUMBER OF ORTHOGONALIZATIONS          =        2
 HEAD CHANGE CRITERION FOR CLOSURE     =    0.10000E-03
 RESIDUAL CHANGE CRITERION FOR CLOSURE =    0.10000E+00
 RESIDUAL CONVERGENCE OPTION           =        0
 RESIDUAL CONVERGENCE NORM             = INFINITY NORM   
 RELAXATION FACTOR                     =    0.00000E+00
 NUMBER OF LEVELS                      =              1
 DROP TOLERANCE                        =    0.10000E-02


1
                            STRESS PERIOD NO.    1, LENGTH =   1.000000    
                            -----------------------------------------------

                              NUMBER OF TIME STEPS =     1

                               MULTIPLIER FOR DELT =     1.000

                            INITIAL TIME STEP SIZE =   1.000000    



 PSEUDO-TRANSIENT CONTINUATION WILL BE APPLIED TO MODEL 1 ("FREYBERG6") DURING THIS TIME STEP


 OUTER ITERATION SUMMARY
 -------------------------------------------------------------------------------------------------------------------------------------------
                       OUTER     INNER BACKTRACK BACKTRACK        INCOMING        OUTGOING         MAXIMUM                    MAXIMUM CHANGE
                   ITERATION ITERATION      FLAG    NUMBER        RESIDUAL        RESIDUAL          CHANGE                    MODEL-(CELLID)
 -------------------------------------------------------------------------------------------------------------------------------------------
 Backtracking              1                   0         0    2.237762E+06    2.237762E+06
 Linear Solver             1        22                                                         780.782                       1_GWF-(3,40,16)
 Under-relaxation          1                                                                   780.782                       1_GWF-(3,40,16)
 Backtracking              2                   0         0     191317.         191317.    
 Linear Solver             2        50                                                         480.253                       1_GWF-(1,40,16)
 Under-relaxation          2                                                                   480.253                       1_GWF-(1,40,16)
 Backtracking              3                   0         0     47255.8         47255.8    
 Linear Solver             3        50                                                         27.2333                       1_GWF-(1,40,16)
 Under-relaxation          3                                                                   27.2333                       1_GWF-(1,40,16)
 Backtracking              4                   0         0     11559.0         11559.0    
 Linear Solver             4        50                                                         4.23458                       1_GWF-(3,39,16)
 Under-relaxation          4                                                                   3.59948                       1_GWF-(3,39,16)
 Backtracking              5                   0         0     2206.46         2206.46    
 Linear Solver             5        50                                                       -0.837428                        1_GWF-(1,11,1)
 Under-relaxation          5                                                                 -0.921171                        1_GWF-(1,11,1)
 Backtracking              6                   0         0     804.760         804.760    
 Linear Solver             6        50                                                       -0.127066                        1_GWF-(1,1,20)
 Under-relaxation          6                                                                 -0.104516                        1_GWF-(1,1,20)
 Backtracking              7                   0         0     233.104         233.104    
 Linear Solver             7        45                                                       -4.456453E-02                   1_GWF-(1,28,11)
 Under-relaxation          7                                                                 -3.182586E-02                   1_GWF-(1,28,11)
 Backtracking              8                   0         0     80.4824         80.4824    
 Linear Solver             8        22                                                       -1.239662E-02                   1_GWF-(1,28,11)
 Under-relaxation          8                                                                 -8.853201E-03                   1_GWF-(1,28,11)
 Backtracking              9                   0         0     21.9333         21.9333    
 Linear Solver             9        10                                                       -3.333383E-03                   1_GWF-(1,28,11)

 9 CALLS TO NUMERICAL SOLUTION IN TIME STEP 1 STRESS PERIOD 1
 349 TOTAL ITERATIONS
1
                            STRESS PERIOD NO.    2, LENGTH =   31.00000    
                            -----------------------------------------------

                              NUMBER OF TIME STEPS =     1

                               MULTIPLIER FOR DELT =     1.000

                            INITIAL TIME STEP SIZE =   31.00000    


 OUTER ITERATION SUMMARY
 -------------------------------------------------------------------------------------------------------------------------------------------
                       OUTER     INNER BACKTRACK BACKTRACK        INCOMING        OUTGOING         MAXIMUM                    MAXIMUM CHANGE
                   ITERATION ITERATION      FLAG    NUMBER        RESIDUAL        RESIDUAL          CHANGE                    MODEL-(CELLID)
 -------------------------------------------------------------------------------------------------------------------------------------------
 Backtracking              1                   0         0     280.195         280.195    
 Linear Solver             1        34                                                        0.190862                        1_GWF-(3,30,7)
 Under-relaxation          1                                                                  0.190862                        1_GWF-(3,30,7)
 Backtracking              2                   0         0     6.34221         6.34221    
 Linear Solver             2        13                                                        4.517720E-03                   1_GWF-(1,39,16)

 2 CALLS TO NUMERICAL SOLUTION IN TIME STEP 1 STRESS PERIOD 2
 47 TOTAL ITERATIONS
1
                            STRESS PERIOD NO.    3, LENGTH =   29.00000    
                            -----------------------------------------------

                              NUMBER OF TIME STEPS =     1

                               MULTIPLIER FOR DELT =     1.000

                            INITIAL TIME STEP SIZE =   29.00000    


 OUTER ITERATION SUMMARY
 -------------------------------------------------------------------------------------------------------------------------------------------
                       OUTER     INNER BACKTRACK BACKTRACK        INCOMING        OUTGOING         MAXIMUM                    MAXIMUM CHANGE
                   ITERATION ITERATION      FLAG    NUMBER        RESIDUAL        RESIDUAL          CHANGE                    MODEL-(CELLID)
 -------------------------------------------------------------------------------------------------------------------------------------------
 Backtracking              1                   0         0     71.2113         71.2113    
 Linear Solver             1        22                                                        0.113924                        1_GWF-(1,26,1)
 Under-relaxation          1                                                                  0.113924                        1_GWF-(1,26,1)
 Backtracking              2                   0         0     4.44102         4.44102    
 Linear Solver             2         9                                                        2.623942E-03                   1_GWF-(1,40,16)

 2 CALLS TO NUMERICAL SOLUTION IN TIME STEP 1 STRESS PERIOD 3
 31 TOTAL ITERATIONS
1
                            STRESS PERIOD NO.    4, LENGTH =   31.00000    
                            -----------------------------------------------

                              NUMBER OF TIME STEPS =     1

                               MULTIPLIER FOR DELT =     1.000

                            INITIAL TIME STEP SIZE =   31.00000    


 OUTER ITERATION SUMMARY
 -------------------------------------------------------------------------------------------------------------------------------------------
                       OUTER     INNER BACKTRACK BACKTRACK        INCOMING        OUTGOING         MAXIMUM                    MAXIMUM CHANGE
                   ITERATION ITERATION      FLAG    NUMBER        RESIDUAL        RESIDUAL          CHANGE                    MODEL-(CELLID)
 -------------------------------------------------------------------------------------------------------------------------------------------
 Backtracking              1                   0         0     102.678         102.678    
 Linear Solver             1        22                                                        9.396356E-02                    1_GWF-(1,16,1)
 Under-relaxation          1                                                                  9.396356E-02                    1_GWF-(1,16,1)
 Backtracking              2                   0         0     2.23855         2.23855    
 Linear Solver             2        13                                                        2.236274E-03                   1_GWF-(1,22,16)

 2 CALLS TO NUMERICAL SOLUTION IN TIME STEP 1 STRESS PERIOD 4
 35 TOTAL ITERATIONS
1
                            STRESS PERIOD NO.    5, LENGTH =   30.00000    
                            -----------------------------------------------

                              NUMBER OF TIME STEPS =     1

                               MULTIPLIER FOR DELT =     1.000

                            INITIAL TIME STEP SIZE =   30.00000    


 OUTER ITERATION SUMMARY
 -------------------------------------------------------------------------------------------------------------------------------------------
                       OUTER     INNER BACKTRACK BACKTRACK        INCOMING        OUTGOING         MAXIMUM                    MAXIMUM CHANGE
                   ITERATION ITERATION      FLAG    NUMBER        RESIDUAL        RESIDUAL          CHANGE                    MODEL-(CELLID)
 -------------------------------------------------------------------------------------------------------------------------------------------
 Backtracking              1                   0         0     140.907         140.907    
 Linear Solver             1        27                                                       -4.873167E-02                   1_GWF-(3,10,17)
 Under-relaxation          1                                                                 -4.873167E-02                   1_GWF-(3,10,17)
 Backtracking              2                   0         0    0.903998        0.903998    
 Linear Solver             2         3                                                       -4.308742E-04                   1_GWF-(1,40,16)

 2 CALLS TO NUMERICAL SOLUTION IN TIME STEP 1 STRESS PERIOD 5
 30 TOTAL ITERATIONS
1
                            STRESS PERIOD NO.    6, LENGTH =   31.00000    
                            -----------------------------------------------

                              NUMBER OF TIME STEPS =     1

                               MULTIPLIER FOR DELT =     1.000

                            INITIAL TIME STEP SIZE =   31.00000    


 OUTER ITERATION SUMMARY
 -------------------------------------------------------------------------------------------------------------------------------------------
                       OUTER     INNER BACKTRACK BACKTRACK        INCOMING        OUTGOING         MAXIMUM                    MAXIMUM CHANGE
                   ITERATION ITERATION      FLAG    NUMBER        RESIDUAL        RESIDUAL          CHANGE                    MODEL-(CELLID)
 -------------------------------------------------------------------------------------------------------------------------------------------
 Backtracking              1                   0         0     152.775         152.775    
 Linear Solver             1        33                                                       -0.119582                        1_GWF-(3,30,7)
 Under-relaxation          1                                                                 -0.119582                        1_GWF-(3,30,7)
 Backtracking              2                   0         0     3.85031         3.85031    
 Linear Solver             2        13                                                       -2.921683E-03                   1_GWF-(1,39,16)

 2 CALLS TO NUMERICAL SOLUTION IN TIME STEP 1 STRESS PERIOD 6
 46 TOTAL ITERATIONS
1
                            STRESS PERIOD NO.    7, LENGTH =   30.00000    
                            -----------------------------------------------

                              NUMBER OF TIME STEPS =     1

                               MULTIPLIER FOR DELT =     1.000

                            INITIAL TIME STEP SIZE =   30.00000    


 OUTER ITERATION SUMMARY
 -------------------------------------------------------------------------------------------------------------------------------------------
                       OUTER     INNER BACKTRACK BACKTRACK        INCOMING        OUTGOING         MAXIMUM                    MAXIMUM CHANGE
                   ITERATION ITERATION      FLAG    NUMBER        RESIDUAL        RESIDUAL          CHANGE                    MODEL-(CELLID)
 -------------------------------------------------------------------------------------------------------------------------------------------
 Backtracking              1                   0         0     132.430         132.430    
 Linear Solver             1        29                                                       -0.156603                        1_GWF-(1,30,7)
 Under-relaxation          1                                                                 -0.156603                        1_GWF-(1,30,7)
 Backtracking              2                   0         0     6.03409         6.03409    
 Linear Solver             2        13                                                       -4.238296E-03                   1_GWF-(1,39,16)

 2 CALLS TO NUMERICAL SOLUTION IN TIME STEP 1 STRESS PERIOD 7
 42 TOTAL ITERATIONS
1
                            STRESS PERIOD NO.    8, LENGTH =   31.00000    
                            -----------------------------------------------

                              NUMBER OF TIME STEPS =     1

                               MULTIPLIER FOR DELT =     1.000

                            INITIAL TIME STEP SIZE =   31.00000    


 OUTER ITERATION SUMMARY
 -------------------------------------------------------------------------------------------------------------------------------------------
                       OUTER     INNER BACKTRACK BACKTRACK        INCOMING        OUTGOING         MAXIMUM                    MAXIMUM CHANGE
                   ITERATION ITERATION      FLAG    NUMBER        RESIDUAL        RESIDUAL          CHANGE                    MODEL-(CELLID)
 -------------------------------------------------------------------------------------------------------------------------------------------
 Backtracking              1                   0         0     83.8348         83.8348    
 Linear Solver             1        23                                                       -0.150003                        1_GWF-(1,26,1)
 Under-relaxation          1                                                                 -0.150003                        1_GWF-(1,26,1)
 Backtracking              2                   0         0     6.83901         6.83901    
 Linear Solver             2        17                                                       -4.579418E-03                   1_GWF-(1,40,16)

 2 CALLS TO NUMERICAL SOLUTION IN TIME STEP 1 STRESS PERIOD 8
 40 TOTAL ITERATIONS
1
                            STRESS PERIOD NO.    9, LENGTH =   31.00000    
                            -----------------------------------------------

                              NUMBER OF TIME STEPS =     1

                               MULTIPLIER FOR DELT =     1.000

                            INITIAL TIME STEP SIZE =   31.00000    


 OUTER ITERATION SUMMARY
 -------------------------------------------------------------------------------------------------------------------------------------------
                       OUTER     INNER BACKTRACK BACKTRACK        INCOMING        OUTGOING         MAXIMUM                    MAXIMUM CHANGE
                   ITERATION ITERATION      FLAG    NUMBER        RESIDUAL        RESIDUAL          CHANGE                    MODEL-(CELLID)
 -------------------------------------------------------------------------------------------------------------------------------------------
 Backtracking              1                   0         0     84.3729         84.3729    
 Linear Solver             1        21                                                       -0.145983                        1_GWF-(1,19,1)
 Under-relaxation          1                                                                 -0.145983                        1_GWF-(1,19,1)
 Backtracking              2                   0         0     6.91451         6.91451    
 Linear Solver             2         9                                                       -4.112075E-03                   1_GWF-(1,40,16)

 2 CALLS TO NUMERICAL SOLUTION IN TIME STEP 1 STRESS PERIOD 9
 30 TOTAL ITERATIONS
1
                            STRESS PERIOD NO.   10, LENGTH =   30.00000    
                            -----------------------------------------------

                              NUMBER OF TIME STEPS =     1

                               MULTIPLIER FOR DELT =     1.000

                            INITIAL TIME STEP SIZE =   30.00000    


 OUTER ITERATION SUMMARY
 -------------------------------------------------------------------------------------------------------------------------------------------
                       OUTER     INNER BACKTRACK BACKTRACK        INCOMING        OUTGOING         MAXIMUM                    MAXIMUM CHANGE
                   ITERATION ITERATION      FLAG    NUMBER        RESIDUAL        RESIDUAL          CHANGE                    MODEL-(CELLID)
 -------------------------------------------------------------------------------------------------------------------------------------------
 Backtracking              1                   0         0     60.7956         60.7956    
 Linear Solver             1        20                                                       -0.112386                        1_GWF-(1,15,1)
 Under-relaxation          1                                                                 -0.112386                        1_GWF-(1,15,1)
 Backtracking              2                   0         0     4.05930         4.05930    
 Linear Solver             2        14                                                       -3.406410E-03                   1_GWF-(1,36,16)

 2 CALLS TO NUMERICAL SOLUTION IN TIME STEP 1 STRESS PERIOD 10
 34 TOTAL ITERATIONS
1
                            STRESS PERIOD NO.   11, LENGTH =   31.00000    
                            -----------------------------------------------

                              NUMBER OF TIME STEPS =     1

                               MULTIPLIER FOR DELT =     1.000

                            INITIAL TIME STEP SIZE =   31.00000    


 OUTER ITERATION SUMMARY
 -------------------------------------------------------------------------------------------------------------------------------------------
                       OUTER     INNER BACKTRACK BACKTRACK        INCOMING        OUTGOING         MAXIMUM                    MAXIMUM CHANGE
                   ITERATION ITERATION      FLAG    NUMBER        RESIDUAL        RESIDUAL          CHANGE                    MODEL-(CELLID)
 -------------------------------------------------------------------------------------------------------------------------------------------
 Backtracking              1                   0         0     108.427         108.427    
 Linear Solver             1        27                                                       -5.128162E-02                    1_GWF-(1,14,1)
 Under-relaxation          1                                                                 -5.128162E-02                    1_GWF-(1,14,1)
 Backtracking              2                   0         0    0.916026        0.916026    
 Linear Solver             2         3                                                        4.712000E-04                   1_GWF-(1,40,16)

 2 CALLS TO NUMERICAL SOLUTION IN TIME STEP 1 STRESS PERIOD 11
 30 TOTAL ITERATIONS
1
                            STRESS PERIOD NO.   12, LENGTH =   30.00000    
                            -----------------------------------------------

                              NUMBER OF TIME STEPS =     1

                               MULTIPLIER FOR DELT =     1.000

                            INITIAL TIME STEP SIZE =   30.00000    


 OUTER ITERATION SUMMARY
 -------------------------------------------------------------------------------------------------------------------------------------------
                       OUTER     INNER BACKTRACK BACKTRACK        INCOMING        OUTGOING         MAXIMUM                    MAXIMUM CHANGE
                   ITERATION ITERATION      FLAG    NUMBER        RESIDUAL        RESIDUAL          CHANGE                    MODEL-(CELLID)
 -------------------------------------------------------------------------------------------------------------------------------------------
 Backtracking              1                   0         0     150.457         150.457    
 Linear Solver             1        28                                                        0.108803                        1_GWF-(3,30,7)
 Under-relaxation          1                                                                  0.108803                        1_GWF-(3,30,7)
 Backtracking              2                   0         0     5.15976         5.15976    
 Linear Solver             2        13                                                        4.062374E-03                   1_GWF-(1,38,16)

 2 CALLS TO NUMERICAL SOLUTION IN TIME STEP 1 STRESS PERIOD 12
 41 TOTAL ITERATIONS
1
                            STRESS PERIOD NO.   13, LENGTH =   31.00000    
                            -----------------------------------------------

                              NUMBER OF TIME STEPS =     1

                               MULTIPLIER FOR DELT =     1.000

                            INITIAL TIME STEP SIZE =   31.00000    


 OUTER ITERATION SUMMARY
 -------------------------------------------------------------------------------------------------------------------------------------------
                       OUTER     INNER BACKTRACK BACKTRACK        INCOMING        OUTGOING         MAXIMUM                    MAXIMUM CHANGE
                   ITERATION ITERATION      FLAG    NUMBER        RESIDUAL        RESIDUAL          CHANGE                    MODEL-(CELLID)
 -------------------------------------------------------------------------------------------------------------------------------------------
 Backtracking              1                   0         0     157.164         157.164    
 Linear Solver             1        35                                                        0.164634                        1_GWF-(3,30,7)
 Under-relaxation          1                                                                  0.164634                        1_GWF-(3,30,7)
 Backtracking              2                   0         0     7.21487         7.21487    
 Linear Solver             2        14                                                        5.202691E-03                   1_GWF-(1,39,16)

 2 CALLS TO NUMERICAL SOLUTION IN TIME STEP 1 STRESS PERIOD 13
 49 TOTAL ITERATIONS
1
                            STRESS PERIOD NO.   14, LENGTH =   31.00000    
                            -----------------------------------------------

                              NUMBER OF TIME STEPS =     1

                               MULTIPLIER FOR DELT =     1.000

                            INITIAL TIME STEP SIZE =   31.00000    


 OUTER ITERATION SUMMARY
 -------------------------------------------------------------------------------------------------------------------------------------------
                       OUTER     INNER BACKTRACK BACKTRACK        INCOMING        OUTGOING         MAXIMUM                    MAXIMUM CHANGE
                   ITERATION ITERATION      FLAG    NUMBER        RESIDUAL        RESIDUAL          CHANGE                    MODEL-(CELLID)
 -------------------------------------------------------------------------------------------------------------------------------------------
 Backtracking              1                   0         0     125.236         125.236    
 Linear Solver             1        33                                                        0.170426                        1_GWF-(1,30,7)
 Under-relaxation          1                                                                  0.170426                        1_GWF-(1,30,7)
 Backtracking              2                   0         0     6.83939         6.83939    
 Linear Solver             2        13                                                        4.660560E-03                   1_GWF-(1,39,16)

 2 CALLS TO NUMERICAL SOLUTION IN TIME STEP 1 STRESS PERIOD 14
 46 TOTAL ITERATIONS
1
                            STRESS PERIOD NO.   15, LENGTH =   28.00000    
                            -----------------------------------------------

                              NUMBER OF TIME STEPS =     1

                               MULTIPLIER FOR DELT =     1.000

                            INITIAL TIME STEP SIZE =   28.00000    


 OUTER ITERATION SUMMARY
 -------------------------------------------------------------------------------------------------------------------------------------------
                       OUTER     INNER BACKTRACK BACKTRACK        INCOMING        OUTGOING         MAXIMUM                    MAXIMUM CHANGE
                   ITERATION ITERATION      FLAG    NUMBER        RESIDUAL        RESIDUAL          CHANGE                    MODEL-(CELLID)
 -------------------------------------------------------------------------------------------------------------------------------------------
 Backtracking              1                   0         0     72.9313         72.9313    
 Linear Solver             1        23                                                        0.122835                        1_GWF-(1,25,1)
 Under-relaxation          1                                                                  0.122835                        1_GWF-(1,25,1)
 Backtracking              2                   0         0     4.53786         4.53786    
 Linear Solver             2         8                                                        2.584647E-03                   1_GWF-(1,40,16)

 2 CALLS TO NUMERICAL SOLUTION IN TIME STEP 1 STRESS PERIOD 15
 31 TOTAL ITERATIONS
1
                            STRESS PERIOD NO.   16, LENGTH =   31.00000    
                            -----------------------------------------------

                              NUMBER OF TIME STEPS =     1

                               MULTIPLIER FOR DELT =     1.000

                            INITIAL TIME STEP SIZE =   31.00000    


 OUTER ITERATION SUMMARY
 -------------------------------------------------------------------------------------------------------------------------------------------
                       OUTER     INNER BACKTRACK BACKTRACK        INCOMING        OUTGOING         MAXIMUM                    MAXIMUM CHANGE
                   ITERATION ITERATION      FLAG    NUMBER        RESIDUAL        RESIDUAL          CHANGE                    MODEL-(CELLID)
 -------------------------------------------------------------------------------------------------------------------------------------------
 Backtracking              1                   0         0     69.8476         69.8476    
 Linear Solver             1        25                                                        9.401655E-02                    1_GWF-(1,17,1)
 Under-relaxation          1                                                                  9.401655E-02                    1_GWF-(1,17,1)
 Backtracking              2                   0         0     2.05762         2.05762    
 Linear Solver             2        12                                                        1.801944E-03                   1_GWF-(1,37,16)

 2 CALLS TO NUMERICAL SOLUTION IN TIME STEP 1 STRESS PERIOD 16
 37 TOTAL ITERATIONS
1
                            STRESS PERIOD NO.   17, LENGTH =   30.00000    
                            -----------------------------------------------

                              NUMBER OF TIME STEPS =     1

                               MULTIPLIER FOR DELT =     1.000

                            INITIAL TIME STEP SIZE =   30.00000    


 OUTER ITERATION SUMMARY
 -------------------------------------------------------------------------------------------------------------------------------------------
                       OUTER     INNER BACKTRACK BACKTRACK        INCOMING        OUTGOING         MAXIMUM                    MAXIMUM CHANGE
                   ITERATION ITERATION      FLAG    NUMBER        RESIDUAL        RESIDUAL          CHANGE                    MODEL-(CELLID)
 -------------------------------------------------------------------------------------------------------------------------------------------
 Backtracking              1                   0         0     121.157         121.157    
 Linear Solver             1        27                                                       -4.955598E-02                   1_GWF-(3,10,17)
 Under-relaxation          1                                                                 -4.955598E-02                   1_GWF-(3,10,17)
 Backtracking              2                   0         0     1.26408         1.26408    
 Linear Solver             2         3                                                       -6.130906E-04                   1_GWF-(1,40,16)

 2 CALLS TO NUMERICAL SOLUTION IN TIME STEP 1 STRESS PERIOD 17
 30 TOTAL ITERATIONS
1
                            STRESS PERIOD NO.   18, LENGTH =   31.00000    
                            -----------------------------------------------

                              NUMBER OF TIME STEPS =     1

                               MULTIPLIER FOR DELT =     1.000

                            INITIAL TIME STEP SIZE =   31.00000    


 OUTER ITERATION SUMMARY
 -------------------------------------------------------------------------------------------------------------------------------------------
                       OUTER     INNER BACKTRACK BACKTRACK        INCOMING        OUTGOING         MAXIMUM                    MAXIMUM CHANGE
                   ITERATION ITERATION      FLAG    NUMBER        RESIDUAL        RESIDUAL          CHANGE                    MODEL-(CELLID)
 -------------------------------------------------------------------------------------------------------------------------------------------
 Backtracking              1                   0         0     155.605         155.605    
 Linear Solver             1        33                                                       -0.126322                        1_GWF-(3,30,7)
 Under-relaxation          1                                                                 -0.126322                        1_GWF-(3,30,7)
 Backtracking              2                   0         0     4.30341         4.30341    
 Linear Solver             2        14                                                       -3.210356E-03                   1_GWF-(1,39,16)

 2 CALLS TO NUMERICAL SOLUTION IN TIME STEP 1 STRESS PERIOD 18
 47 TOTAL ITERATIONS
1
                            STRESS PERIOD NO.   19, LENGTH =   30.00000    
                            -----------------------------------------------

                              NUMBER OF TIME STEPS =     1

                               MULTIPLIER FOR DELT =     1.000

                            INITIAL TIME STEP SIZE =   30.00000    


 OUTER ITERATION SUMMARY
 -------------------------------------------------------------------------------------------------------------------------------------------
                       OUTER     INNER BACKTRACK BACKTRACK        INCOMING        OUTGOING         MAXIMUM                    MAXIMUM CHANGE
                   ITERATION ITERATION      FLAG    NUMBER        RESIDUAL        RESIDUAL          CHANGE                    MODEL-(CELLID)
 -------------------------------------------------------------------------------------------------------------------------------------------
 Backtracking              1                   0         0     152.210         152.210    
 Linear Solver             1        37                                                       -0.165383                        1_GWF-(3,30,7)
 Under-relaxation          1                                                                 -0.165383                        1_GWF-(3,30,7)
 Backtracking              2                   0         0     6.42701         6.42701    
 Linear Solver             2        16                                                       -4.540827E-03                   1_GWF-(1,39,16)

 2 CALLS TO NUMERICAL SOLUTION IN TIME STEP 1 STRESS PERIOD 19
 53 TOTAL ITERATIONS
1
                            STRESS PERIOD NO.   20, LENGTH =   31.00000    
                            -----------------------------------------------

                              NUMBER OF TIME STEPS =     1

                               MULTIPLIER FOR DELT =     1.000

                            INITIAL TIME STEP SIZE =   31.00000    


 OUTER ITERATION SUMMARY
 -------------------------------------------------------------------------------------------------------------------------------------------
                       OUTER     INNER BACKTRACK BACKTRACK        INCOMING        OUTGOING         MAXIMUM                    MAXIMUM CHANGE
                   ITERATION ITERATION      FLAG    NUMBER        RESIDUAL        RESIDUAL          CHANGE                    MODEL-(CELLID)
 -------------------------------------------------------------------------------------------------------------------------------------------
 Backtracking              1                   0         0     112.716         112.716    
 Linear Solver             1        34                                                       -0.163488                        1_GWF-(1,30,7)
 Under-relaxation          1                                                                 -0.163488                        1_GWF-(1,30,7)
 Backtracking              2                   0         0     7.48924         7.48924    
 Linear Solver             2        13                                                       -5.212512E-03                   1_GWF-(1,39,16)

 2 CALLS TO NUMERICAL SOLUTION IN TIME STEP 1 STRESS PERIOD 20
 47 TOTAL ITERATIONS
1
                            STRESS PERIOD NO.   21, LENGTH =   31.00000    
                            -----------------------------------------------

                              NUMBER OF TIME STEPS =     1

                               MULTIPLIER FOR DELT =     1.000

                            INITIAL TIME STEP SIZE =   31.00000    


 OUTER ITERATION SUMMARY
 -------------------------------------------------------------------------------------------------------------------------------------------
                       OUTER     INNER BACKTRACK BACKTRACK        INCOMING        OUTGOING         MAXIMUM                    MAXIMUM CHANGE
                   ITERATION ITERATION      FLAG    NUMBER        RESIDUAL        RESIDUAL          CHANGE                    MODEL-(CELLID)
 -------------------------------------------------------------------------------------------------------------------------------------------
 Backtracking              1                   0         0     63.4340         63.4340    
 Linear Solver             1        19                                                       -0.124428                        1_GWF-(1,22,1)
 Under-relaxation          1                                                                 -0.124428                        1_GWF-(1,22,1)
 Backtracking              2                   0         0     6.18178         6.18178    
 Linear Solver             2         8                                                       -3.709835E-03                   1_GWF-(1,40,16)

 2 CALLS TO NUMERICAL SOLUTION IN TIME STEP 1 STRESS PERIOD 21
 27 TOTAL ITERATIONS
1
                            STRESS PERIOD NO.   22, LENGTH =   30.00000    
                            -----------------------------------------------

                              NUMBER OF TIME STEPS =     1

                               MULTIPLIER FOR DELT =     1.000

                            INITIAL TIME STEP SIZE =   30.00000    


 OUTER ITERATION SUMMARY
 -------------------------------------------------------------------------------------------------------------------------------------------
                       OUTER     INNER BACKTRACK BACKTRACK        INCOMING        OUTGOING         MAXIMUM                    MAXIMUM CHANGE
                   ITERATION ITERATION      FLAG    NUMBER        RESIDUAL        RESIDUAL          CHANGE                    MODEL-(CELLID)
 -------------------------------------------------------------------------------------------------------------------------------------------
 Backtracking              1                   0         0     81.1833         81.1833    
 Linear Solver             1        26                                                       -7.621229E-02                    1_GWF-(1,16,1)
 Under-relaxation          1                                                                 -7.621229E-02                    1_GWF-(1,16,1)
 Backtracking              2                   0         0     1.94114         1.94114    
 Linear Solver             2        12                                                       -2.415574E-03                   1_GWF-(1,35,16)

 2 CALLS TO NUMERICAL SOLUTION IN TIME STEP 1 STRESS PERIOD 22
 38 TOTAL ITERATIONS
1
                            STRESS PERIOD NO.   23, LENGTH =   31.00000    
                            -----------------------------------------------

                              NUMBER OF TIME STEPS =     1

                               MULTIPLIER FOR DELT =     1.000

                            INITIAL TIME STEP SIZE =   31.00000    


 OUTER ITERATION SUMMARY
 -------------------------------------------------------------------------------------------------------------------------------------------
                       OUTER     INNER BACKTRACK BACKTRACK        INCOMING        OUTGOING         MAXIMUM                    MAXIMUM CHANGE
                   ITERATION ITERATION      FLAG    NUMBER        RESIDUAL        RESIDUAL          CHANGE                    MODEL-(CELLID)
 -------------------------------------------------------------------------------------------------------------------------------------------
 Backtracking              1                   0         0     132.757         132.757    
 Linear Solver             1        33                                                        7.012999E-02                   1_GWF-(3,27,11)
 Under-relaxation          1                                                                  7.012999E-02                   1_GWF-(3,27,11)
 Backtracking              2                   0         0     3.26935         3.26935    
 Linear Solver             2         8                                                        2.212892E-03                   1_GWF-(1,40,16)

 2 CALLS TO NUMERICAL SOLUTION IN TIME STEP 1 STRESS PERIOD 23
 41 TOTAL ITERATIONS
1
                            STRESS PERIOD NO.   24, LENGTH =   30.00000    
                            -----------------------------------------------

                              NUMBER OF TIME STEPS =     1

                               MULTIPLIER FOR DELT =     1.000

                            INITIAL TIME STEP SIZE =   30.00000    


 OUTER ITERATION SUMMARY
 -------------------------------------------------------------------------------------------------------------------------------------------
                       OUTER     INNER BACKTRACK BACKTRACK        INCOMING        OUTGOING         MAXIMUM                    MAXIMUM CHANGE
                   ITERATION ITERATION      FLAG    NUMBER        RESIDUAL        RESIDUAL          CHANGE                    MODEL-(CELLID)
 -------------------------------------------------------------------------------------------------------------------------------------------
 Backtracking              1                   0         0     158.685         158.685    
 Linear Solver             1        37                                                        0.139313                        1_GWF-(3,30,7)
 Under-relaxation          1                                                                  0.139313                        1_GWF-(3,30,7)
 Backtracking              2                   0         0     6.40443         6.40443    
 Linear Solver             2        17                                                        4.594095E-03                   1_GWF-(1,39,16)

 2 CALLS TO NUMERICAL SOLUTION IN TIME STEP 1 STRESS PERIOD 24
 54 TOTAL ITERATIONS
1
                            STRESS PERIOD NO.   25, LENGTH =   31.00000    
                            -----------------------------------------------

                              NUMBER OF TIME STEPS =     1

                               MULTIPLIER FOR DELT =     1.000

                            INITIAL TIME STEP SIZE =   31.00000    


 OUTER ITERATION SUMMARY
 -------------------------------------------------------------------------------------------------------------------------------------------
                       OUTER     INNER BACKTRACK BACKTRACK        INCOMING        OUTGOING         MAXIMUM                    MAXIMUM CHANGE
                   ITERATION ITERATION      FLAG    NUMBER        RESIDUAL        RESIDUAL          CHANGE                    MODEL-(CELLID)
 -------------------------------------------------------------------------------------------------------------------------------------------
 Backtracking              1                   0         0     145.643         145.643    
 Linear Solver             1        38                                                        0.173442                        1_GWF-(1,30,7)
 Under-relaxation          1                                                                  0.173442                        1_GWF-(1,30,7)
 Backtracking              2                   0         0     7.28787         7.28787    
 Linear Solver             2        13                                                        5.134763E-03                   1_GWF-(1,39,16)

 2 CALLS TO NUMERICAL SOLUTION IN TIME STEP 1 STRESS PERIOD 25
 51 TOTAL ITERATIONS

 INFORMATION ON VARIABLES STORED IN THE MEMORY MANAGER
 
 Number of allocated integer variables:   151870
 Number of allocated real variables:    146065
 Allocated memory in megabytes:     1.77600    
 

 Run end date and time (yyyy/mm/dd hh:mm:ss): 2020/03/20 12:13:10
 Elapsed run time:  0.265 Seconds

 Normal termination of simulation.
