                                   MODFLOW 6
                U.S. GEOLOGICAL SURVEY MODULAR HYDROLOGIC MODEL
                            VERSION 6.1.0 12/12/2019

   MODFLOW 6 compiled Dec 13 2019 09:25:31 with IFORT compiler (ver. 19.0.5)

This software has been approved for release by the U.S. Geological 
Survey (USGS). Although the software has been subjected to rigorous 
review, the USGS reserves the right to update the software as needed 
pursuant to further analysis and review. No warranty, expressed or 
implied, is made by the USGS or the U.S. Government as to the 
functionality of the software and related material nor shall the 
fact of release constitute any such warranty. Furthermore, the 
software is released on condition that neither the USGS nor the U.S. 
Government shall be held liable for any damages resulting from its 
authorized or unauthorized use. Also refer to the USGS Water 
Resources Software User Rights Notice for complete use, copyright, 
and distribution information.


System command used to initiate simulation:
mf6

MODFLOW was compiled using uniform precision.
Real Variables
  PRECISION: 15
  KIND: 8
  TINY (smallest non-zero value):    2.225074-308
  HUGE (largest value):    1.797693+308
Integer Variables
  KIND: 4
  HUGE (largest value): 2147483647
  BIT_SIZE: 32
 

 OPENED mfsim.nam
 FILE TYPE:NAM   UNIT 1001   STATUS:OLD                 
 FORMAT:FORMATTED              ACCESS:SEQUENTIAL          
 ACTION:READ                


 READING SIMULATION OPTIONS
    SIMULATION WILL CONTINUE EVEN IF THERE IS NONCONVERGENCE.
 END OF SIMULATION OPTIONS

 READING SIMULATION TIMING

 OPENED freyberg6.tdis
 FILE TYPE:TDIS   UNIT 1002   STATUS:OLD                 
 FORMAT:FORMATTED              ACCESS:SEQUENTIAL          
 ACTION:READ                


 TDIS -- TEMPORAL DISCRETIZATION PACKAGE,
 VERSION 1 : 11/13/2014 - INPUT READ FROM UNIT 1002
 PROCESSING TDIS OPTIONS
    SIMULATION TIME UNIT IS DAYS
 END OF TDIS OPTIONS
 PROCESSING TDIS DIMENSIONS
   25 STRESS PERIOD(S) IN SIMULATION
 END OF TDIS DIMENSIONS
 PROCESSING TDIS PERIODDATA


 STRESS PERIOD     LENGTH       TIME STEPS     MULTIPLIER FOR DELT
 ----------------------------------------------------------------------------
        1         1.000000          1                    1.000
        2         31.00000          1                    1.000
        3         29.00000          1                    1.000
        4         31.00000          1                    1.000
        5         30.00000          1                    1.000
        6         31.00000          1                    1.000
        7         30.00000          1                    1.000
        8         31.00000          1                    1.000
        9         31.00000          1                    1.000
       10         30.00000          1                    1.000
       11         31.00000          1                    1.000
       12         30.00000          1                    1.000
       13         31.00000          1                    1.000
       14         31.00000          1                    1.000
       15         28.00000          1                    1.000
       16         31.00000          1                    1.000
       17         30.00000          1                    1.000
       18         31.00000          1                    1.000
       19         30.00000          1                    1.000
       20         31.00000          1                    1.000
       21         31.00000          1                    1.000
       22         30.00000          1                    1.000
       23         31.00000          1                    1.000
       24         30.00000          1                    1.000
       25         31.00000          1                    1.000
 END OF TDIS PERIODDATA
 END OF SIMULATION TIMING

 READING SIMULATION MODELS
    GWF6 model FREYBERG6 will be created as model 1
 END OF SIMULATION MODELS

 READING SIMULATION EXCHANGES
 END OF SIMULATION EXCHANGES

 READING SOLUTIONGROUP

 Creating solution: SLN_1           

 OPENED freyberg6.ims
 FILE TYPE:IMS   UNIT 1015   STATUS:OLD                 
 FORMAT:FORMATTED              ACCESS:SEQUENTIAL          
 ACTION:READ                

 END OF SIMULATION SOLUTIONGROUP

 IMS -- ITERATIVE MODEL SOLUTION PACKAGE, VERSION 6, 4/28/2017
         INPUT READ FROM UNIT 1015

 PROCESSING IMS OPTIONS
 SIMPLE OPTION:
 DEFAULT SOLVER INPUT VALUES FOR FAST SOLUTIONS
 END OF IMS OPTIONS

 PROCESSING IMS NONLINEAR
 END OF IMS NONLINEAR DATA
 **UNDER-RELAXATION WILL BE USED***
 
 ***IMS LINEAR SOLVER WILL BE USED***

 IMSLINEAR -- UNSTRUCTURED LINEAR SOLUTION PACKAGE, VERSION 8, 04/28/2017

 PROCESSING LINEAR DATA
 END OF LINEAR DATA
 
 OUTER ITERATION CONVERGENCE CRITERION     (HCLOSE) =    0.100000E-01
 OUTER ITERATION BOUNDARY FLOW RESIDUAL (RCLOSEBND) =    0.100000E+00
 MAXIMUM NUMBER OF OUTER ITERATIONS        (MXITER) =       100
 SOLVER PRINTOUT INDEX                     (IPRIMS) =         1
 NONLINEAR ITERATION METHOD            (NONLINMETH) =         3
 LINEAR SOLUTION METHOD                   (LINMETH) =         1
 UNDER-RELAXATION WEIGHT REDUCTION FACTOR   (THETA) =    0.850000E+00
 UNDER-RELAXATION WEIGHT INCREASE INCREMENT (KAPPA) =    0.100000E-04
 UNDER-RELAXATION PREVIOUS HISTORY FACTOR   (GAMMA) =    0.000000E+00
 UNDER-RELAXATIONMOMENTUM TERM          (AMOMENTUM) =    0.100000E+00
    MAXIMUM NUMBER OF BACKTRACKS         (NUMTRACK) =        50
 BACKTRACKING TOLERANCE FACTOR               (BTOL) =    0.110000E+01
 BACKTRACKING REDUCTION FACTOR             (BREDUC) =    0.700000E+00
 BACKTRACKING RESIDUAL LIMIT              (RES_LIM) =    0.100000E+03

       SOLUTION BY THE BICONJUGATE-GRADIENT STABILIZED METHOD
 ------------------------------------------------------------------
 MAXIMUM OF    100 CALLS OF SOLUTION ROUTINE
 MAXIMUM OF     50 INTERNAL ITERATIONS PER CALL TO SOLUTION ROUTINE
 LINEAR ACCELERATION METHOD            = BCGS      
 MATRIX PRECONDITIONING TYPE           = INCOMPLETE LUT      
 MATRIX SCALING APPROACH               = NO SCALING          
 MATRIX REORDERING APPROACH            = RCM ORDERING             
 NUMBER OF ORTHOGONALIZATIONS          =        2
 HEAD CHANGE CRITERION FOR CLOSURE     =    0.10000E-03
 RESIDUAL CHANGE CRITERION FOR CLOSURE =    0.10000E+00
 RESIDUAL CONVERGENCE OPTION           =        0
 RESIDUAL CONVERGENCE NORM             = INFINITY NORM   
 RELAXATION FACTOR                     =    0.00000E+00
 NUMBER OF LEVELS                      =              1
 DROP TOLERANCE                        =    0.10000E-02


1
                            STRESS PERIOD NO.    1, LENGTH =   1.000000    
                            -----------------------------------------------

                              NUMBER OF TIME STEPS =     1

                               MULTIPLIER FOR DELT =     1.000

                            INITIAL TIME STEP SIZE =   1.000000    



 PSEUDO-TRANSIENT CONTINUATION WILL BE APPLIED TO MODEL 1 ("FREYBERG6") DURING THIS TIME STEP


 OUTER ITERATION SUMMARY
 -------------------------------------------------------------------------------------------------------------------------------------------
                       OUTER     INNER BACKTRACK BACKTRACK        INCOMING        OUTGOING         MAXIMUM                    MAXIMUM CHANGE
                   ITERATION ITERATION      FLAG    NUMBER        RESIDUAL        RESIDUAL          CHANGE                    MODEL-(CELLID)
 -------------------------------------------------------------------------------------------------------------------------------------------
 Backtracking              1                   0         0    1.902098E+06    1.902098E+06
 Linear Solver             1        21                                                         753.190                       1_GWF-(3,40,16)
 Under-relaxation          1                                                                   753.190                       1_GWF-(3,40,16)
 Backtracking              2                   0         0     186752.         186752.    
 Linear Solver             2        41                                                         494.300                       1_GWF-(1,40,16)
 Under-relaxation          2                                                                   494.300                       1_GWF-(1,40,16)
 Backtracking              3                   0         0     43598.6         43598.6    
 Linear Solver             3        50                                                         34.1200                       1_GWF-(1,40,16)
 Under-relaxation          3                                                                   34.1200                       1_GWF-(1,40,16)
 Backtracking              4                   0         0     11343.8         11343.8    
 Linear Solver             4        50                                                         5.09230                       1_GWF-(3,39,16)
 Under-relaxation          4                                                                   4.32856                       1_GWF-(3,39,16)
 Backtracking              5                   0         0     2286.75         2286.75    
 Linear Solver             5        50                                                       -0.988849                        1_GWF-(1,11,1)
 Under-relaxation          5                                                                  -1.08773                        1_GWF-(1,11,1)
 Backtracking              6                   0         0     865.315         865.315    
 Linear Solver             6        50                                                       -0.152689                       1_GWF-(1,10,13)
 Under-relaxation          6                                                                 -0.125591                       1_GWF-(1,10,13)
 Backtracking              7                   0         0     278.739         278.739    
 Linear Solver             7        24                                                       -4.331797E-02                    1_GWF-(1,30,8)
 Under-relaxation          7                                                                 -3.093563E-02                    1_GWF-(1,30,8)
 Backtracking              8                   0         0     82.8163         82.8163    
 Linear Solver             8        29                                                       -2.866878E-02                    1_GWF-(1,31,7)
 Under-relaxation          8                                                                 -2.082938E-02                    1_GWF-(1,26,1)
 Backtracking              9                   0         0     59.6122         59.6122    
 Linear Solver             9        17                                                       -6.560200E-03                    1_GWF-(1,31,7)

 9 CALLS TO NUMERICAL SOLUTION IN TIME STEP 1 STRESS PERIOD 1
 332 TOTAL ITERATIONS
1
                            STRESS PERIOD NO.    2, LENGTH =   31.00000    
                            -----------------------------------------------

                              NUMBER OF TIME STEPS =     1

                               MULTIPLIER FOR DELT =     1.000

                            INITIAL TIME STEP SIZE =   31.00000    


 OUTER ITERATION SUMMARY
 -------------------------------------------------------------------------------------------------------------------------------------------
                       OUTER     INNER BACKTRACK BACKTRACK        INCOMING        OUTGOING         MAXIMUM                    MAXIMUM CHANGE
                   ITERATION ITERATION      FLAG    NUMBER        RESIDUAL        RESIDUAL          CHANGE                    MODEL-(CELLID)
 -------------------------------------------------------------------------------------------------------------------------------------------
 Backtracking              1                   0         0     253.829         253.829    
 Linear Solver             1        28                                                        0.200926                        1_GWF-(3,30,7)
 Under-relaxation          1                                                                  0.200926                        1_GWF-(3,30,7)
 Backtracking              2                   0         0     6.19276         6.19276    
 Linear Solver             2        18                                                        4.585925E-03                    1_GWF-(3,15,3)

 2 CALLS TO NUMERICAL SOLUTION IN TIME STEP 1 STRESS PERIOD 2
 46 TOTAL ITERATIONS
1
                            STRESS PERIOD NO.    3, LENGTH =   29.00000    
                            -----------------------------------------------

                              NUMBER OF TIME STEPS =     1

                               MULTIPLIER FOR DELT =     1.000

                            INITIAL TIME STEP SIZE =   29.00000    


 OUTER ITERATION SUMMARY
 -------------------------------------------------------------------------------------------------------------------------------------------
                       OUTER     INNER BACKTRACK BACKTRACK        INCOMING        OUTGOING         MAXIMUM                    MAXIMUM CHANGE
                   ITERATION ITERATION      FLAG    NUMBER        RESIDUAL        RESIDUAL          CHANGE                    MODEL-(CELLID)
 -------------------------------------------------------------------------------------------------------------------------------------------
 Backtracking              1                   0         0     72.5702         72.5702    
 Linear Solver             1        23                                                        0.122628                        1_GWF-(1,27,1)
 Under-relaxation          1                                                                  0.122628                        1_GWF-(1,27,1)
 Backtracking              2                   0         0     4.35096         4.35096    
 Linear Solver             2        13                                                        2.966899E-03                   1_GWF-(1,40,16)

 2 CALLS TO NUMERICAL SOLUTION IN TIME STEP 1 STRESS PERIOD 3
 36 TOTAL ITERATIONS
1
                            STRESS PERIOD NO.    4, LENGTH =   31.00000    
                            -----------------------------------------------

                              NUMBER OF TIME STEPS =     1

                               MULTIPLIER FOR DELT =     1.000

                            INITIAL TIME STEP SIZE =   31.00000    


 OUTER ITERATION SUMMARY
 -------------------------------------------------------------------------------------------------------------------------------------------
                       OUTER     INNER BACKTRACK BACKTRACK        INCOMING        OUTGOING         MAXIMUM                    MAXIMUM CHANGE
                   ITERATION ITERATION      FLAG    NUMBER        RESIDUAL        RESIDUAL          CHANGE                    MODEL-(CELLID)
 -------------------------------------------------------------------------------------------------------------------------------------------
 Backtracking              1                   0         0     95.2167         95.2167    
 Linear Solver             1        24                                                        0.102994                        1_GWF-(1,16,1)
 Under-relaxation          1                                                                  0.102994                        1_GWF-(1,16,1)
 Backtracking              2                   0         0     2.11040         2.11040    
 Linear Solver             2         3                                                        9.887129E-04                   1_GWF-(1,40,16)

 2 CALLS TO NUMERICAL SOLUTION IN TIME STEP 1 STRESS PERIOD 4
 27 TOTAL ITERATIONS
1
                            STRESS PERIOD NO.    5, LENGTH =   30.00000    
                            -----------------------------------------------

                              NUMBER OF TIME STEPS =     1

                               MULTIPLIER FOR DELT =     1.000

                            INITIAL TIME STEP SIZE =   30.00000    


 OUTER ITERATION SUMMARY
 -------------------------------------------------------------------------------------------------------------------------------------------
                       OUTER     INNER BACKTRACK BACKTRACK        INCOMING        OUTGOING         MAXIMUM                    MAXIMUM CHANGE
                   ITERATION ITERATION      FLAG    NUMBER        RESIDUAL        RESIDUAL          CHANGE                    MODEL-(CELLID)
 -------------------------------------------------------------------------------------------------------------------------------------------
 Backtracking              1                   0         0     127.013         127.013    
 Linear Solver             1        29                                                       -5.067167E-02                   1_GWF-(3,10,17)
 Under-relaxation          1                                                                 -5.067167E-02                   1_GWF-(3,10,17)
 Backtracking              2                   0         0    0.868193        0.868193    
 Linear Solver             2         3                                                       -4.246801E-04                   1_GWF-(1,40,16)

 2 CALLS TO NUMERICAL SOLUTION IN TIME STEP 1 STRESS PERIOD 5
 32 TOTAL ITERATIONS
1
                            STRESS PERIOD NO.    6, LENGTH =   31.00000    
                            -----------------------------------------------

                              NUMBER OF TIME STEPS =     1

                               MULTIPLIER FOR DELT =     1.000

                            INITIAL TIME STEP SIZE =   31.00000    


 OUTER ITERATION SUMMARY
 -------------------------------------------------------------------------------------------------------------------------------------------
                       OUTER     INNER BACKTRACK BACKTRACK        INCOMING        OUTGOING         MAXIMUM                    MAXIMUM CHANGE
                   ITERATION ITERATION      FLAG    NUMBER        RESIDUAL        RESIDUAL          CHANGE                    MODEL-(CELLID)
 -------------------------------------------------------------------------------------------------------------------------------------------
 Backtracking              1                   0         0     138.796         138.796    
 Linear Solver             1        30                                                       -0.125406                        1_GWF-(3,30,7)
 Under-relaxation          1                                                                 -0.125406                        1_GWF-(3,30,7)
 Backtracking              2                   0         0     3.79154         3.79154    
 Linear Solver             2        13                                                       -2.967376E-03                   1_GWF-(1,39,16)

 2 CALLS TO NUMERICAL SOLUTION IN TIME STEP 1 STRESS PERIOD 6
 43 TOTAL ITERATIONS
1
                            STRESS PERIOD NO.    7, LENGTH =   30.00000    
                            -----------------------------------------------

                              NUMBER OF TIME STEPS =     1

                               MULTIPLIER FOR DELT =     1.000

                            INITIAL TIME STEP SIZE =   30.00000    


 OUTER ITERATION SUMMARY
 -------------------------------------------------------------------------------------------------------------------------------------------
                       OUTER     INNER BACKTRACK BACKTRACK        INCOMING        OUTGOING         MAXIMUM                    MAXIMUM CHANGE
                   ITERATION ITERATION      FLAG    NUMBER        RESIDUAL        RESIDUAL          CHANGE                    MODEL-(CELLID)
 -------------------------------------------------------------------------------------------------------------------------------------------
 Backtracking              1                   0         0     124.058         124.058    
 Linear Solver             1        32                                                       -0.166745                        1_GWF-(1,30,7)
 Under-relaxation          1                                                                 -0.166745                        1_GWF-(1,30,7)
 Backtracking              2                   0         0     5.85381         5.85381    
 Linear Solver             2        16                                                       -4.331260E-03                   1_GWF-(1,39,16)

 2 CALLS TO NUMERICAL SOLUTION IN TIME STEP 1 STRESS PERIOD 7
 48 TOTAL ITERATIONS
1
                            STRESS PERIOD NO.    8, LENGTH =   31.00000    
                            -----------------------------------------------

                              NUMBER OF TIME STEPS =     1

                               MULTIPLIER FOR DELT =     1.000

                            INITIAL TIME STEP SIZE =   31.00000    


 OUTER ITERATION SUMMARY
 -------------------------------------------------------------------------------------------------------------------------------------------
                       OUTER     INNER BACKTRACK BACKTRACK        INCOMING        OUTGOING         MAXIMUM                    MAXIMUM CHANGE
                   ITERATION ITERATION      FLAG    NUMBER        RESIDUAL        RESIDUAL          CHANGE                    MODEL-(CELLID)
 -------------------------------------------------------------------------------------------------------------------------------------------
 Backtracking              1                   0         0     97.8055         97.8055    
 Linear Solver             1        26                                                       -0.171891                        1_GWF-(1,30,7)
 Under-relaxation          1                                                                 -0.171891                        1_GWF-(1,30,7)
 Backtracking              2                   0         0     7.06281         7.06281    
 Linear Solver             2        13                                                       -4.898261E-03                   1_GWF-(1,40,16)

 2 CALLS TO NUMERICAL SOLUTION IN TIME STEP 1 STRESS PERIOD 8
 39 TOTAL ITERATIONS
1
                            STRESS PERIOD NO.    9, LENGTH =   31.00000    
                            -----------------------------------------------

                              NUMBER OF TIME STEPS =     1

                               MULTIPLIER FOR DELT =     1.000

                            INITIAL TIME STEP SIZE =   31.00000    


 OUTER ITERATION SUMMARY
 -------------------------------------------------------------------------------------------------------------------------------------------
                       OUTER     INNER BACKTRACK BACKTRACK        INCOMING        OUTGOING         MAXIMUM                    MAXIMUM CHANGE
                   ITERATION ITERATION      FLAG    NUMBER        RESIDUAL        RESIDUAL          CHANGE                    MODEL-(CELLID)
 -------------------------------------------------------------------------------------------------------------------------------------------
 Backtracking              1                   0         0     77.4063         77.4063    
 Linear Solver             1        24                                                       -0.160930                        1_GWF-(1,19,1)
 Under-relaxation          1                                                                 -0.160930                        1_GWF-(1,19,1)
 Backtracking              2                   0         0     6.32086         6.32086    
 Linear Solver             2        16                                                       -4.459763E-03                   1_GWF-(1,39,16)

 2 CALLS TO NUMERICAL SOLUTION IN TIME STEP 1 STRESS PERIOD 9
 40 TOTAL ITERATIONS
1
                            STRESS PERIOD NO.   10, LENGTH =   30.00000    
                            -----------------------------------------------

                              NUMBER OF TIME STEPS =     1

                               MULTIPLIER FOR DELT =     1.000

                            INITIAL TIME STEP SIZE =   30.00000    


 OUTER ITERATION SUMMARY
 -------------------------------------------------------------------------------------------------------------------------------------------
                       OUTER     INNER BACKTRACK BACKTRACK        INCOMING        OUTGOING         MAXIMUM                    MAXIMUM CHANGE
                   ITERATION ITERATION      FLAG    NUMBER        RESIDUAL        RESIDUAL          CHANGE                    MODEL-(CELLID)
 -------------------------------------------------------------------------------------------------------------------------------------------
 Backtracking              1                   0         0     59.5052         59.5052    
 Linear Solver             1        23                                                       -0.122564                        1_GWF-(1,15,1)
 Under-relaxation          1                                                                 -0.122564                        1_GWF-(1,15,1)
 Backtracking              2                   0         0     3.52328         3.52328    
 Linear Solver             2        13                                                       -3.030406E-03                   1_GWF-(1,37,16)

 2 CALLS TO NUMERICAL SOLUTION IN TIME STEP 1 STRESS PERIOD 10
 36 TOTAL ITERATIONS
1
                            STRESS PERIOD NO.   11, LENGTH =   31.00000    
                            -----------------------------------------------

                              NUMBER OF TIME STEPS =     1

                               MULTIPLIER FOR DELT =     1.000

                            INITIAL TIME STEP SIZE =   31.00000    


 OUTER ITERATION SUMMARY
 -------------------------------------------------------------------------------------------------------------------------------------------
                       OUTER     INNER BACKTRACK BACKTRACK        INCOMING        OUTGOING         MAXIMUM                    MAXIMUM CHANGE
                   ITERATION ITERATION      FLAG    NUMBER        RESIDUAL        RESIDUAL          CHANGE                    MODEL-(CELLID)
 -------------------------------------------------------------------------------------------------------------------------------------------
 Backtracking              1                   0         0     98.0228         98.0228    
 Linear Solver             1        24                                                       -5.485651E-02                    1_GWF-(1,14,1)
 Under-relaxation          1                                                                 -5.485651E-02                    1_GWF-(1,14,1)
 Backtracking              2                   0         0     1.17006         1.17006    
 Linear Solver             2         9                                                       -3.135235E-03                    1_GWF-(3,12,2)

 2 CALLS TO NUMERICAL SOLUTION IN TIME STEP 1 STRESS PERIOD 11
 33 TOTAL ITERATIONS
1
                            STRESS PERIOD NO.   12, LENGTH =   30.00000    
                            -----------------------------------------------

                              NUMBER OF TIME STEPS =     1

                               MULTIPLIER FOR DELT =     1.000

                            INITIAL TIME STEP SIZE =   30.00000    


 OUTER ITERATION SUMMARY
 -------------------------------------------------------------------------------------------------------------------------------------------
                       OUTER     INNER BACKTRACK BACKTRACK        INCOMING        OUTGOING         MAXIMUM                    MAXIMUM CHANGE
                   ITERATION ITERATION      FLAG    NUMBER        RESIDUAL        RESIDUAL          CHANGE                    MODEL-(CELLID)
 -------------------------------------------------------------------------------------------------------------------------------------------
 Backtracking              1                   0         0     136.850         136.850    
 Linear Solver             1        30                                                        0.116053                        1_GWF-(3,30,7)
 Under-relaxation          1                                                                  0.116053                        1_GWF-(3,30,7)
 Backtracking              2                   0         0     4.94231         4.94231    
 Linear Solver             2        13                                                        3.824261E-03                   1_GWF-(1,39,16)

 2 CALLS TO NUMERICAL SOLUTION IN TIME STEP 1 STRESS PERIOD 12
 43 TOTAL ITERATIONS
1
                            STRESS PERIOD NO.   13, LENGTH =   31.00000    
                            -----------------------------------------------

                              NUMBER OF TIME STEPS =     1

                               MULTIPLIER FOR DELT =     1.000

                            INITIAL TIME STEP SIZE =   31.00000    


 OUTER ITERATION SUMMARY
 -------------------------------------------------------------------------------------------------------------------------------------------
                       OUTER     INNER BACKTRACK BACKTRACK        INCOMING        OUTGOING         MAXIMUM                    MAXIMUM CHANGE
                   ITERATION ITERATION      FLAG    NUMBER        RESIDUAL        RESIDUAL          CHANGE                    MODEL-(CELLID)
 -------------------------------------------------------------------------------------------------------------------------------------------
 Backtracking              1                   0         0     145.433         145.433    
 Linear Solver             1        39                                                        0.175839                        1_GWF-(3,30,7)
 Under-relaxation          1                                                                  0.175839                        1_GWF-(3,30,7)
 Backtracking              2                   0         0     6.91868         6.91868    
 Linear Solver             2        19                                                        5.213696E-03                   1_GWF-(1,38,16)

 2 CALLS TO NUMERICAL SOLUTION IN TIME STEP 1 STRESS PERIOD 13
 58 TOTAL ITERATIONS
1
                            STRESS PERIOD NO.   14, LENGTH =   31.00000    
                            -----------------------------------------------

                              NUMBER OF TIME STEPS =     1

                               MULTIPLIER FOR DELT =     1.000

                            INITIAL TIME STEP SIZE =   31.00000    


 OUTER ITERATION SUMMARY
 -------------------------------------------------------------------------------------------------------------------------------------------
                       OUTER     INNER BACKTRACK BACKTRACK        INCOMING        OUTGOING         MAXIMUM                    MAXIMUM CHANGE
                   ITERATION ITERATION      FLAG    NUMBER        RESIDUAL        RESIDUAL          CHANGE                    MODEL-(CELLID)
 -------------------------------------------------------------------------------------------------------------------------------------------
 Backtracking              1                   0         0     119.357         119.357    
 Linear Solver             1        42                                                        0.182094                        1_GWF-(1,30,7)
 Under-relaxation          1                                                                  0.182094                        1_GWF-(1,30,7)
 Backtracking              2                   0         0     6.58973         6.58973    
 Linear Solver             2         9                                                        4.455698E-03                   1_GWF-(1,40,16)

 2 CALLS TO NUMERICAL SOLUTION IN TIME STEP 1 STRESS PERIOD 14
 51 TOTAL ITERATIONS
1
                            STRESS PERIOD NO.   15, LENGTH =   28.00000    
                            -----------------------------------------------

                              NUMBER OF TIME STEPS =     1

                               MULTIPLIER FOR DELT =     1.000

                            INITIAL TIME STEP SIZE =   28.00000    


 OUTER ITERATION SUMMARY
 -------------------------------------------------------------------------------------------------------------------------------------------
                       OUTER     INNER BACKTRACK BACKTRACK        INCOMING        OUTGOING         MAXIMUM                    MAXIMUM CHANGE
                   ITERATION ITERATION      FLAG    NUMBER        RESIDUAL        RESIDUAL          CHANGE                    MODEL-(CELLID)
 -------------------------------------------------------------------------------------------------------------------------------------------
 Backtracking              1                   0         0     73.6227         73.6227    
 Linear Solver             1        21                                                        0.131846                        1_GWF-(1,25,1)
 Under-relaxation          1                                                                  0.131846                        1_GWF-(1,25,1)
 Backtracking              2                   0         0     4.38765         4.38765    
 Linear Solver             2        13                                                        2.886146E-03                   1_GWF-(1,40,16)

 2 CALLS TO NUMERICAL SOLUTION IN TIME STEP 1 STRESS PERIOD 15
 34 TOTAL ITERATIONS
1
                            STRESS PERIOD NO.   16, LENGTH =   31.00000    
                            -----------------------------------------------

                              NUMBER OF TIME STEPS =     1

                               MULTIPLIER FOR DELT =     1.000

                            INITIAL TIME STEP SIZE =   31.00000    


 OUTER ITERATION SUMMARY
 -------------------------------------------------------------------------------------------------------------------------------------------
                       OUTER     INNER BACKTRACK BACKTRACK        INCOMING        OUTGOING         MAXIMUM                    MAXIMUM CHANGE
                   ITERATION ITERATION      FLAG    NUMBER        RESIDUAL        RESIDUAL          CHANGE                    MODEL-(CELLID)
 -------------------------------------------------------------------------------------------------------------------------------------------
 Backtracking              1                   0         0     65.9140         65.9140    
 Linear Solver             1        26                                                        0.101260                        1_GWF-(1,17,1)
 Under-relaxation          1                                                                  0.101260                        1_GWF-(1,17,1)
 Backtracking              2                   0         0     1.92745         1.92745    
 Linear Solver             2         3                                                        9.233789E-04                   1_GWF-(1,40,16)

 2 CALLS TO NUMERICAL SOLUTION IN TIME STEP 1 STRESS PERIOD 16
 29 TOTAL ITERATIONS
1
                            STRESS PERIOD NO.   17, LENGTH =   30.00000    
                            -----------------------------------------------

                              NUMBER OF TIME STEPS =     1

                               MULTIPLIER FOR DELT =     1.000

                            INITIAL TIME STEP SIZE =   30.00000    


 OUTER ITERATION SUMMARY
 -------------------------------------------------------------------------------------------------------------------------------------------
                       OUTER     INNER BACKTRACK BACKTRACK        INCOMING        OUTGOING         MAXIMUM                    MAXIMUM CHANGE
                   ITERATION ITERATION      FLAG    NUMBER        RESIDUAL        RESIDUAL          CHANGE                    MODEL-(CELLID)
 -------------------------------------------------------------------------------------------------------------------------------------------
 Backtracking              1                   0         0     109.312         109.312    
 Linear Solver             1        26                                                       -5.324665E-02                   1_GWF-(3,10,17)
 Under-relaxation          1                                                                 -5.324665E-02                   1_GWF-(3,10,17)
 Backtracking              2                   0         0     1.34051         1.34051    
 Linear Solver             2         3                                                       -7.192095E-04                   1_GWF-(1,40,16)

 2 CALLS TO NUMERICAL SOLUTION IN TIME STEP 1 STRESS PERIOD 17
 29 TOTAL ITERATIONS
1
                            STRESS PERIOD NO.   18, LENGTH =   31.00000    
                            -----------------------------------------------

                              NUMBER OF TIME STEPS =     1

                               MULTIPLIER FOR DELT =     1.000

                            INITIAL TIME STEP SIZE =   31.00000    


 OUTER ITERATION SUMMARY
 -------------------------------------------------------------------------------------------------------------------------------------------
                       OUTER     INNER BACKTRACK BACKTRACK        INCOMING        OUTGOING         MAXIMUM                    MAXIMUM CHANGE
                   ITERATION ITERATION      FLAG    NUMBER        RESIDUAL        RESIDUAL          CHANGE                    MODEL-(CELLID)
 -------------------------------------------------------------------------------------------------------------------------------------------
 Backtracking              1                   0         0     141.887         141.887    
 Linear Solver             1        30                                                       -0.134190                        1_GWF-(3,30,7)
 Under-relaxation          1                                                                 -0.134190                        1_GWF-(3,30,7)
 Backtracking              2                   0         0     4.30168         4.30168    
 Linear Solver             2        13                                                       -3.288306E-03                   1_GWF-(1,39,16)

 2 CALLS TO NUMERICAL SOLUTION IN TIME STEP 1 STRESS PERIOD 18
 43 TOTAL ITERATIONS
1
                            STRESS PERIOD NO.   19, LENGTH =   30.00000    
                            -----------------------------------------------

                              NUMBER OF TIME STEPS =     1

                               MULTIPLIER FOR DELT =     1.000

                            INITIAL TIME STEP SIZE =   30.00000    


 OUTER ITERATION SUMMARY
 -------------------------------------------------------------------------------------------------------------------------------------------
                       OUTER     INNER BACKTRACK BACKTRACK        INCOMING        OUTGOING         MAXIMUM                    MAXIMUM CHANGE
                   ITERATION ITERATION      FLAG    NUMBER        RESIDUAL        RESIDUAL          CHANGE                    MODEL-(CELLID)
 -------------------------------------------------------------------------------------------------------------------------------------------
 Backtracking              1                   0         0     141.530         141.530    
 Linear Solver             1        36                                                       -0.176409                        1_GWF-(3,30,7)
 Under-relaxation          1                                                                 -0.176409                        1_GWF-(3,30,7)
 Backtracking              2                   0         0     6.26860         6.26860    
 Linear Solver             2         9                                                       -4.241003E-03                   1_GWF-(1,40,16)

 2 CALLS TO NUMERICAL SOLUTION IN TIME STEP 1 STRESS PERIOD 19
 45 TOTAL ITERATIONS
1
                            STRESS PERIOD NO.   20, LENGTH =   31.00000    
                            -----------------------------------------------

                              NUMBER OF TIME STEPS =     1

                               MULTIPLIER FOR DELT =     1.000

                            INITIAL TIME STEP SIZE =   31.00000    


 OUTER ITERATION SUMMARY
 -------------------------------------------------------------------------------------------------------------------------------------------
                       OUTER     INNER BACKTRACK BACKTRACK        INCOMING        OUTGOING         MAXIMUM                    MAXIMUM CHANGE
                   ITERATION ITERATION      FLAG    NUMBER        RESIDUAL        RESIDUAL          CHANGE                    MODEL-(CELLID)
 -------------------------------------------------------------------------------------------------------------------------------------------
 Backtracking              1                   0         0     108.420         108.420    
 Linear Solver             1        32                                                       -0.174639                        1_GWF-(1,30,7)
 Under-relaxation          1                                                                 -0.174639                        1_GWF-(1,30,7)
 Backtracking              2                   0         0     7.12644         7.12644    
 Linear Solver             2         8                                                       -4.485307E-03                   1_GWF-(1,40,16)

 2 CALLS TO NUMERICAL SOLUTION IN TIME STEP 1 STRESS PERIOD 20
 40 TOTAL ITERATIONS
1
                            STRESS PERIOD NO.   21, LENGTH =   31.00000    
                            -----------------------------------------------

                              NUMBER OF TIME STEPS =     1

                               MULTIPLIER FOR DELT =     1.000

                            INITIAL TIME STEP SIZE =   31.00000    


 OUTER ITERATION SUMMARY
 -------------------------------------------------------------------------------------------------------------------------------------------
                       OUTER     INNER BACKTRACK BACKTRACK        INCOMING        OUTGOING         MAXIMUM                    MAXIMUM CHANGE
                   ITERATION ITERATION      FLAG    NUMBER        RESIDUAL        RESIDUAL          CHANGE                    MODEL-(CELLID)
 -------------------------------------------------------------------------------------------------------------------------------------------
 Backtracking              1                   0         0     64.6684         64.6684    
 Linear Solver             1        28                                                       -0.137779                        1_GWF-(1,20,1)
 Under-relaxation          1                                                                 -0.137779                        1_GWF-(1,20,1)
 Backtracking              2                   0         0     5.59067         5.59067    
 Linear Solver             2        13                                                       -4.093383E-03                   1_GWF-(1,39,16)

 2 CALLS TO NUMERICAL SOLUTION IN TIME STEP 1 STRESS PERIOD 21
 41 TOTAL ITERATIONS
1
                            STRESS PERIOD NO.   22, LENGTH =   30.00000    
                            -----------------------------------------------

                              NUMBER OF TIME STEPS =     1

                               MULTIPLIER FOR DELT =     1.000

                            INITIAL TIME STEP SIZE =   30.00000    


 OUTER ITERATION SUMMARY
 -------------------------------------------------------------------------------------------------------------------------------------------
                       OUTER     INNER BACKTRACK BACKTRACK        INCOMING        OUTGOING         MAXIMUM                    MAXIMUM CHANGE
                   ITERATION ITERATION      FLAG    NUMBER        RESIDUAL        RESIDUAL          CHANGE                    MODEL-(CELLID)
 -------------------------------------------------------------------------------------------------------------------------------------------
 Backtracking              1                   0         0     74.7080         74.7080    
 Linear Solver             1        22                                                       -8.198632E-02                    1_GWF-(1,16,1)
 Under-relaxation          1                                                                 -8.198632E-02                    1_GWF-(1,16,1)
 Backtracking              2                   0         0     1.67861         1.67861    
 Linear Solver             2        13                                                       -2.351633E-03                   1_GWF-(3,33,20)

 2 CALLS TO NUMERICAL SOLUTION IN TIME STEP 1 STRESS PERIOD 22
 35 TOTAL ITERATIONS
1
                            STRESS PERIOD NO.   23, LENGTH =   31.00000    
                            -----------------------------------------------

                              NUMBER OF TIME STEPS =     1

                               MULTIPLIER FOR DELT =     1.000

                            INITIAL TIME STEP SIZE =   31.00000    


 OUTER ITERATION SUMMARY
 -------------------------------------------------------------------------------------------------------------------------------------------
                       OUTER     INNER BACKTRACK BACKTRACK        INCOMING        OUTGOING         MAXIMUM                    MAXIMUM CHANGE
                   ITERATION ITERATION      FLAG    NUMBER        RESIDUAL        RESIDUAL          CHANGE                    MODEL-(CELLID)
 -------------------------------------------------------------------------------------------------------------------------------------------
 Backtracking              1                   0         0     119.960         119.960    
 Linear Solver             1        31                                                        7.467322E-02                   1_GWF-(3,27,11)
 Under-relaxation          1                                                                  7.467322E-02                   1_GWF-(3,27,11)
 Backtracking              2                   0         0     3.11727         3.11727    
 Linear Solver             2        13                                                        2.566689E-03                   1_GWF-(1,38,16)

 2 CALLS TO NUMERICAL SOLUTION IN TIME STEP 1 STRESS PERIOD 23
 44 TOTAL ITERATIONS
1
                            STRESS PERIOD NO.   24, LENGTH =   30.00000    
                            -----------------------------------------------

                              NUMBER OF TIME STEPS =     1

                               MULTIPLIER FOR DELT =     1.000

                            INITIAL TIME STEP SIZE =   30.00000    


 OUTER ITERATION SUMMARY
 -------------------------------------------------------------------------------------------------------------------------------------------
                       OUTER     INNER BACKTRACK BACKTRACK        INCOMING        OUTGOING         MAXIMUM                    MAXIMUM CHANGE
                   ITERATION ITERATION      FLAG    NUMBER        RESIDUAL        RESIDUAL          CHANGE                    MODEL-(CELLID)
 -------------------------------------------------------------------------------------------------------------------------------------------
 Backtracking              1                   0         0     145.374         145.374    
 Linear Solver             1        35                                                        0.148181                        1_GWF-(3,30,7)
 Under-relaxation          1                                                                  0.148181                        1_GWF-(3,30,7)
 Backtracking              2                   0         0     6.08456         6.08456    
 Linear Solver             2        17                                                        4.575043E-03                   1_GWF-(1,38,16)

 2 CALLS TO NUMERICAL SOLUTION IN TIME STEP 1 STRESS PERIOD 24
 52 TOTAL ITERATIONS
1
                            STRESS PERIOD NO.   25, LENGTH =   31.00000    
                            -----------------------------------------------

                              NUMBER OF TIME STEPS =     1

                               MULTIPLIER FOR DELT =     1.000

                            INITIAL TIME STEP SIZE =   31.00000    


 OUTER ITERATION SUMMARY
 -------------------------------------------------------------------------------------------------------------------------------------------
                       OUTER     INNER BACKTRACK BACKTRACK        INCOMING        OUTGOING         MAXIMUM                    MAXIMUM CHANGE
                   ITERATION ITERATION      FLAG    NUMBER        RESIDUAL        RESIDUAL          CHANGE                    MODEL-(CELLID)
 -------------------------------------------------------------------------------------------------------------------------------------------
 Backtracking              1                   0         0     136.361         136.361    
 Linear Solver             1        27                                                        0.184658                        1_GWF-(1,30,7)
 Under-relaxation          1                                                                  0.184658                        1_GWF-(1,30,7)
 Backtracking              2                   0         0     7.01586         7.01586    
 Linear Solver             2        19                                                        5.169523E-03                   1_GWF-(1,39,16)

 2 CALLS TO NUMERICAL SOLUTION IN TIME STEP 1 STRESS PERIOD 25
 46 TOTAL ITERATIONS

 INFORMATION ON VARIABLES STORED IN THE MEMORY MANAGER
 
 Number of allocated integer variables:   151870
 Number of allocated real variables:    146065
 Allocated memory in megabytes:     1.77600    
 

 Run end date and time (yyyy/mm/dd hh:mm:ss): 2020/06/03 15:33:36
 Elapsed run time:  0.403 Seconds

 Normal termination of simulation.
