                                   MODFLOW 6
                U.S. GEOLOGICAL SURVEY MODULAR HYDROLOGIC MODEL
                            VERSION 6.1.0 12/12/2019

   MODFLOW 6 compiled Dec 12 2019 13:30:12 with IFORT compiler (ver. 19.0.5)

This software has been approved for release by the U.S. Geological 
Survey (USGS). Although the software has been subjected to rigorous 
review, the USGS reserves the right to update the software as needed 
pursuant to further analysis and review. No warranty, expressed or 
implied, is made by the USGS or the U.S. Government as to the 
functionality of the software and related material nor shall the 
fact of release constitute any such warranty. Furthermore, the 
software is released on condition that neither the USGS nor the U.S. 
Government shall be held liable for any damages resulting from its 
authorized or unauthorized use. Also refer to the USGS Water 
Resources Software User Rights Notice for complete use, copyright, 
and distribution information.


System command used to initiate simulation:
mf6

MODFLOW was compiled using uniform precision.
Real Variables
  PRECISION: 15
  KIND: 8
  TINY (smallest non-zero value):    2.225074-308
  HUGE (largest value):    1.797693+308
Integer Variables
  KIND: 4
  HUGE (largest value): 2147483647
  BIT_SIZE: 32
 

 OPENED mfsim.nam
 FILE TYPE:NAM   UNIT 1001   STATUS:OLD                 
 FORMAT:FORMATTED              ACCESS:SEQUENTIAL          
 ACTION:READ                


 READING SIMULATION OPTIONS
    SIMULATION WILL CONTINUE EVEN IF THERE IS NONCONVERGENCE.
 END OF SIMULATION OPTIONS

 READING SIMULATION TIMING

 OPENED freyberg6.tdis
 FILE TYPE:TDIS   UNIT 1002   STATUS:OLD                 
 FORMAT:FORMATTED              ACCESS:SEQUENTIAL          
 ACTION:READ                


 TDIS -- TEMPORAL DISCRETIZATION PACKAGE,
 VERSION 1 : 11/13/2014 - INPUT READ FROM UNIT 1002
 PROCESSING TDIS OPTIONS
    SIMULATION TIME UNIT IS DAYS
 END OF TDIS OPTIONS
 PROCESSING TDIS DIMENSIONS
   25 STRESS PERIOD(S) IN SIMULATION
 END OF TDIS DIMENSIONS
 PROCESSING TDIS PERIODDATA


 STRESS PERIOD     LENGTH       TIME STEPS     MULTIPLIER FOR DELT
 ----------------------------------------------------------------------------
        1         1.000000          1                    1.000
        2         31.00000          1                    1.000
        3         29.00000          1                    1.000
        4         31.00000          1                    1.000
        5         30.00000          1                    1.000
        6         31.00000          1                    1.000
        7         30.00000          1                    1.000
        8         31.00000          1                    1.000
        9         31.00000          1                    1.000
       10         30.00000          1                    1.000
       11         31.00000          1                    1.000
       12         30.00000          1                    1.000
       13         31.00000          1                    1.000
       14         31.00000          1                    1.000
       15         28.00000          1                    1.000
       16         31.00000          1                    1.000
       17         30.00000          1                    1.000
       18         31.00000          1                    1.000
       19         30.00000          1                    1.000
       20         31.00000          1                    1.000
       21         31.00000          1                    1.000
       22         30.00000          1                    1.000
       23         31.00000          1                    1.000
       24         30.00000          1                    1.000
       25         31.00000          1                    1.000
 END OF TDIS PERIODDATA
 END OF SIMULATION TIMING

 READING SIMULATION MODELS
    GWF6 model FREYBERG6 will be created as model 1
 END OF SIMULATION MODELS

 READING SIMULATION EXCHANGES
 END OF SIMULATION EXCHANGES

 READING SOLUTIONGROUP

 Creating solution: SLN_1           

 OPENED freyberg6.ims
 FILE TYPE:IMS   UNIT 1015   STATUS:OLD                 
 FORMAT:FORMATTED              ACCESS:SEQUENTIAL          
 ACTION:READ                

 END OF SIMULATION SOLUTIONGROUP

 IMS -- ITERATIVE MODEL SOLUTION PACKAGE, VERSION 6, 4/28/2017
         INPUT READ FROM UNIT 1015

 PROCESSING IMS OPTIONS
 SIMPLE OPTION:
 DEFAULT SOLVER INPUT VALUES FOR FAST SOLUTIONS
 END OF IMS OPTIONS

 PROCESSING IMS NONLINEAR
 END OF IMS NONLINEAR DATA
 **UNDER-RELAXATION WILL BE USED***
 
 ***IMS LINEAR SOLVER WILL BE USED***

 IMSLINEAR -- UNSTRUCTURED LINEAR SOLUTION PACKAGE, VERSION 8, 04/28/2017

 PROCESSING LINEAR DATA
 END OF LINEAR DATA
 
 OUTER ITERATION CONVERGENCE CRITERION     (HCLOSE) =    0.100000E-01
 OUTER ITERATION BOUNDARY FLOW RESIDUAL (RCLOSEBND) =    0.100000E+00
 MAXIMUM NUMBER OF OUTER ITERATIONS        (MXITER) =       100
 SOLVER PRINTOUT INDEX                     (IPRIMS) =         1
 NONLINEAR ITERATION METHOD            (NONLINMETH) =         3
 LINEAR SOLUTION METHOD                   (LINMETH) =         1
 UNDER-RELAXATION WEIGHT REDUCTION FACTOR   (THETA) =    0.850000E+00
 UNDER-RELAXATION WEIGHT INCREASE INCREMENT (KAPPA) =    0.100000E-04
 UNDER-RELAXATION PREVIOUS HISTORY FACTOR   (GAMMA) =    0.000000E+00
 UNDER-RELAXATIONMOMENTUM TERM          (AMOMENTUM) =    0.100000E+00
    MAXIMUM NUMBER OF BACKTRACKS         (NUMTRACK) =        50
 BACKTRACKING TOLERANCE FACTOR               (BTOL) =    0.110000E+01
 BACKTRACKING REDUCTION FACTOR             (BREDUC) =    0.700000E+00
 BACKTRACKING RESIDUAL LIMIT              (RES_LIM) =    0.100000E+03

       SOLUTION BY THE BICONJUGATE-GRADIENT STABILIZED METHOD
 ------------------------------------------------------------------
 MAXIMUM OF    100 CALLS OF SOLUTION ROUTINE
 MAXIMUM OF     50 INTERNAL ITERATIONS PER CALL TO SOLUTION ROUTINE
 LINEAR ACCELERATION METHOD            = BCGS      
 MATRIX PRECONDITIONING TYPE           = INCOMPLETE LUT      
 MATRIX SCALING APPROACH               = NO SCALING          
 MATRIX REORDERING APPROACH            = RCM ORDERING             
 NUMBER OF ORTHOGONALIZATIONS          =        2
 HEAD CHANGE CRITERION FOR CLOSURE     =    0.10000E-03
 RESIDUAL CHANGE CRITERION FOR CLOSURE =    0.10000E+00
 RESIDUAL CONVERGENCE OPTION           =        0
 RESIDUAL CONVERGENCE NORM             = INFINITY NORM   
 RELAXATION FACTOR                     =    0.00000E+00
 NUMBER OF LEVELS                      =              1
 DROP TOLERANCE                        =    0.10000E-02


1
                            STRESS PERIOD NO.    1, LENGTH =   1.000000    
                            -----------------------------------------------

                              NUMBER OF TIME STEPS =     1

                               MULTIPLIER FOR DELT =     1.000

                            INITIAL TIME STEP SIZE =   1.000000    



 PSEUDO-TRANSIENT CONTINUATION WILL BE APPLIED TO MODEL 1 ("FREYBERG6") DURING THIS TIME STEP


 OUTER ITERATION SUMMARY
 -------------------------------------------------------------------------------------------------------------------------------------------
                       OUTER     INNER BACKTRACK BACKTRACK        INCOMING        OUTGOING         MAXIMUM                    MAXIMUM CHANGE
                   ITERATION ITERATION      FLAG    NUMBER        RESIDUAL        RESIDUAL          CHANGE                    MODEL-(CELLID)
 -------------------------------------------------------------------------------------------------------------------------------------------
 Backtracking              1                   0         0    2.237763E+06    2.237763E+06
 Linear Solver             1        22                                                         780.783                       1_GWF-(3,40,16)
 Under-relaxation          1                                                                   780.783                       1_GWF-(3,40,16)
 Backtracking              2                   0         0     191316.         191316.    
 Linear Solver             2        50                                                         480.281                       1_GWF-(1,40,16)
 Under-relaxation          2                                                                   480.281                       1_GWF-(1,40,16)
 Backtracking              3                   0         0     47266.0         47266.0    
 Linear Solver             3        50                                                         27.2764                       1_GWF-(1,40,16)
 Under-relaxation          3                                                                   27.2764                       1_GWF-(1,40,16)
 Backtracking              4                   0         0     11570.5         11570.5    
 Linear Solver             4        50                                                         4.19683                       1_GWF-(3,39,16)
 Under-relaxation          4                                                                   3.56739                       1_GWF-(3,39,16)
 Backtracking              5                   0         0     2195.27         2195.27    
 Linear Solver             5        50                                                       -0.722060                        1_GWF-(1,11,1)
 Under-relaxation          5                                                                 -0.794266                        1_GWF-(1,11,1)
 Backtracking              6                   0         0     730.392         730.392    
 Linear Solver             6        50                                                       -0.146514                        1_GWF-(1,8,13)
 Under-relaxation          6                                                                 -0.120512                        1_GWF-(1,8,13)
 Backtracking              7                   0         0     278.170         278.170    
 Linear Solver             7        27                                                       -3.358237E-02                    1_GWF-(1,30,7)
 Under-relaxation          7                                                                 -2.398293E-02                    1_GWF-(1,30,7)
 Backtracking              8                   0         0     75.7289         75.7289    
 Linear Solver             8        19                                                       -1.265781E-02                    1_GWF-(1,29,8)
 Under-relaxation          8                                                                 -9.039731E-03                    1_GWF-(1,29,8)
 Backtracking              9                   0         0     27.9317         27.9317    
 Linear Solver             9        13                                                       -4.026458E-03                    1_GWF-(1,30,7)

 9 CALLS TO NUMERICAL SOLUTION IN TIME STEP 1 STRESS PERIOD 1
 331 TOTAL ITERATIONS
1
                            STRESS PERIOD NO.    2, LENGTH =   31.00000    
                            -----------------------------------------------

                              NUMBER OF TIME STEPS =     1

                               MULTIPLIER FOR DELT =     1.000

                            INITIAL TIME STEP SIZE =   31.00000    


 OUTER ITERATION SUMMARY
 -------------------------------------------------------------------------------------------------------------------------------------------
                       OUTER     INNER BACKTRACK BACKTRACK        INCOMING        OUTGOING         MAXIMUM                    MAXIMUM CHANGE
                   ITERATION ITERATION      FLAG    NUMBER        RESIDUAL        RESIDUAL          CHANGE                    MODEL-(CELLID)
 -------------------------------------------------------------------------------------------------------------------------------------------
 Backtracking              1                   0         0     53.6334         53.6334    
 Linear Solver             1        21                                                        9.231780E-02                    1_GWF-(1,12,1)
 Under-relaxation          1                                                                  9.231780E-02                    1_GWF-(1,12,1)
 Backtracking              2                   0         0     3.59603         3.59603    
 Linear Solver             2         3                                                        1.469258E-03                   1_GWF-(1,40,16)

 2 CALLS TO NUMERICAL SOLUTION IN TIME STEP 1 STRESS PERIOD 2
 24 TOTAL ITERATIONS
1
                            STRESS PERIOD NO.    3, LENGTH =   29.00000    
                            -----------------------------------------------

                              NUMBER OF TIME STEPS =     1

                               MULTIPLIER FOR DELT =     1.000

                            INITIAL TIME STEP SIZE =   29.00000    


 OUTER ITERATION SUMMARY
 -------------------------------------------------------------------------------------------------------------------------------------------
                       OUTER     INNER BACKTRACK BACKTRACK        INCOMING        OUTGOING         MAXIMUM                    MAXIMUM CHANGE
                   ITERATION ITERATION      FLAG    NUMBER        RESIDUAL        RESIDUAL          CHANGE                    MODEL-(CELLID)
 -------------------------------------------------------------------------------------------------------------------------------------------
 Backtracking              1                   0         0     50.5710         50.5710    
 Linear Solver             1        20                                                        0.100798                        1_GWF-(1,14,1)
 Under-relaxation          1                                                                  0.100798                        1_GWF-(1,14,1)
 Backtracking              2                   0         0     2.97478         2.97478    
 Linear Solver             2         3                                                        1.176838E-03                   1_GWF-(1,40,16)

 2 CALLS TO NUMERICAL SOLUTION IN TIME STEP 1 STRESS PERIOD 3
 23 TOTAL ITERATIONS
1
                            STRESS PERIOD NO.    4, LENGTH =   31.00000    
                            -----------------------------------------------

                              NUMBER OF TIME STEPS =     1

                               MULTIPLIER FOR DELT =     1.000

                            INITIAL TIME STEP SIZE =   31.00000    


 OUTER ITERATION SUMMARY
 -------------------------------------------------------------------------------------------------------------------------------------------
                       OUTER     INNER BACKTRACK BACKTRACK        INCOMING        OUTGOING         MAXIMUM                    MAXIMUM CHANGE
                   ITERATION ITERATION      FLAG    NUMBER        RESIDUAL        RESIDUAL          CHANGE                    MODEL-(CELLID)
 -------------------------------------------------------------------------------------------------------------------------------------------
 Backtracking              1                   0         0     33.1592         33.1592    
 Linear Solver             1        13                                                        8.656074E-02                    1_GWF-(1,13,1)
 Under-relaxation          1                                                                  8.656074E-02                    1_GWF-(1,13,1)
 Backtracking              2                   0         0     1.97009         1.97009    
 Linear Solver             2         9                                                       -2.070066E-03                    1_GWF-(2,10,1)

 2 CALLS TO NUMERICAL SOLUTION IN TIME STEP 1 STRESS PERIOD 4
 22 TOTAL ITERATIONS
1
                            STRESS PERIOD NO.    5, LENGTH =   30.00000    
                            -----------------------------------------------

                              NUMBER OF TIME STEPS =     1

                               MULTIPLIER FOR DELT =     1.000

                            INITIAL TIME STEP SIZE =   30.00000    


 OUTER ITERATION SUMMARY
 -------------------------------------------------------------------------------------------------------------------------------------------
                       OUTER     INNER BACKTRACK BACKTRACK        INCOMING        OUTGOING         MAXIMUM                    MAXIMUM CHANGE
                   ITERATION ITERATION      FLAG    NUMBER        RESIDUAL        RESIDUAL          CHANGE                    MODEL-(CELLID)
 -------------------------------------------------------------------------------------------------------------------------------------------
 Backtracking              1                   0         0     9.47312         9.47312    
 Linear Solver             1        15                                                        2.722594E-02                    1_GWF-(1,13,1)
 Under-relaxation          1                                                                  2.722594E-02                    1_GWF-(1,13,1)
 Backtracking              2                   0         0    0.705284        0.705284    
 Linear Solver             2         6                                                        1.562503E-03                    1_GWF-(2,2,20)

 2 CALLS TO NUMERICAL SOLUTION IN TIME STEP 1 STRESS PERIOD 5
 21 TOTAL ITERATIONS
1
                            STRESS PERIOD NO.    6, LENGTH =   31.00000    
                            -----------------------------------------------

                              NUMBER OF TIME STEPS =     1

                               MULTIPLIER FOR DELT =     1.000

                            INITIAL TIME STEP SIZE =   31.00000    


 OUTER ITERATION SUMMARY
 -------------------------------------------------------------------------------------------------------------------------------------------
                       OUTER     INNER BACKTRACK BACKTRACK        INCOMING        OUTGOING         MAXIMUM                    MAXIMUM CHANGE
                   ITERATION ITERATION      FLAG    NUMBER        RESIDUAL        RESIDUAL          CHANGE                    MODEL-(CELLID)
 -------------------------------------------------------------------------------------------------------------------------------------------
 Backtracking              1                   0         0     31.9250         31.9250    
 Linear Solver             1        19                                                       -4.835585E-02                    1_GWF-(1,30,8)
 Under-relaxation          1                                                                 -4.835585E-02                    1_GWF-(1,30,8)
 Backtracking              2                   0         0     2.21038         2.21038    
 Linear Solver             2        12                                                       -3.389007E-03                    1_GWF-(3,19,2)

 2 CALLS TO NUMERICAL SOLUTION IN TIME STEP 1 STRESS PERIOD 6
 31 TOTAL ITERATIONS
1
                            STRESS PERIOD NO.    7, LENGTH =   30.00000    
                            -----------------------------------------------

                              NUMBER OF TIME STEPS =     1

                               MULTIPLIER FOR DELT =     1.000

                            INITIAL TIME STEP SIZE =   30.00000    


 OUTER ITERATION SUMMARY
 -------------------------------------------------------------------------------------------------------------------------------------------
                       OUTER     INNER BACKTRACK BACKTRACK        INCOMING        OUTGOING         MAXIMUM                    MAXIMUM CHANGE
                   ITERATION ITERATION      FLAG    NUMBER        RESIDUAL        RESIDUAL          CHANGE                    MODEL-(CELLID)
 -------------------------------------------------------------------------------------------------------------------------------------------
 Backtracking              1                   0         0     55.8914         55.8914    
 Linear Solver             1        19                                                       -9.308118E-02                    1_GWF-(1,23,1)
 Under-relaxation          1                                                                 -9.308118E-02                    1_GWF-(1,23,1)
 Backtracking              2                   0         0     3.60196         3.60196    
 Linear Solver             2        13                                                       -2.236745E-03                    1_GWF-(3,19,2)

 2 CALLS TO NUMERICAL SOLUTION IN TIME STEP 1 STRESS PERIOD 7
 32 TOTAL ITERATIONS
1
                            STRESS PERIOD NO.    8, LENGTH =   31.00000    
                            -----------------------------------------------

                              NUMBER OF TIME STEPS =     1

                               MULTIPLIER FOR DELT =     1.000

                            INITIAL TIME STEP SIZE =   31.00000    


 OUTER ITERATION SUMMARY
 -------------------------------------------------------------------------------------------------------------------------------------------
                       OUTER     INNER BACKTRACK BACKTRACK        INCOMING        OUTGOING         MAXIMUM                    MAXIMUM CHANGE
                   ITERATION ITERATION      FLAG    NUMBER        RESIDUAL        RESIDUAL          CHANGE                    MODEL-(CELLID)
 -------------------------------------------------------------------------------------------------------------------------------------------
 Backtracking              1                   0         0     66.0526         66.0526    
 Linear Solver             1        19                                                       -0.132410                        1_GWF-(1,14,1)
 Under-relaxation          1                                                                 -0.132410                        1_GWF-(1,14,1)
 Backtracking              2                   0         0     4.41118         4.41118    
 Linear Solver             2         9                                                       -2.382847E-03                   1_GWF-(1,40,16)

 2 CALLS TO NUMERICAL SOLUTION IN TIME STEP 1 STRESS PERIOD 8
 28 TOTAL ITERATIONS
1
                            STRESS PERIOD NO.    9, LENGTH =   31.00000    
                            -----------------------------------------------

                              NUMBER OF TIME STEPS =     1

                               MULTIPLIER FOR DELT =     1.000

                            INITIAL TIME STEP SIZE =   31.00000    


 OUTER ITERATION SUMMARY
 -------------------------------------------------------------------------------------------------------------------------------------------
                       OUTER     INNER BACKTRACK BACKTRACK        INCOMING        OUTGOING         MAXIMUM                    MAXIMUM CHANGE
                   ITERATION ITERATION      FLAG    NUMBER        RESIDUAL        RESIDUAL          CHANGE                    MODEL-(CELLID)
 -------------------------------------------------------------------------------------------------------------------------------------------
 Backtracking              1                   0         0     58.0009         58.0009    
 Linear Solver             1        15                                                       -0.134743                        1_GWF-(1,13,1)
 Under-relaxation          1                                                                 -0.134743                        1_GWF-(1,13,1)
 Backtracking              2                   0         0     3.92596         3.92596    
 Linear Solver             2         9                                                       -2.033546E-03                   1_GWF-(1,24,16)

 2 CALLS TO NUMERICAL SOLUTION IN TIME STEP 1 STRESS PERIOD 9
 24 TOTAL ITERATIONS
1
                            STRESS PERIOD NO.   10, LENGTH =   30.00000    
                            -----------------------------------------------

                              NUMBER OF TIME STEPS =     1

                               MULTIPLIER FOR DELT =     1.000

                            INITIAL TIME STEP SIZE =   30.00000    


 OUTER ITERATION SUMMARY
 -------------------------------------------------------------------------------------------------------------------------------------------
                       OUTER     INNER BACKTRACK BACKTRACK        INCOMING        OUTGOING         MAXIMUM                    MAXIMUM CHANGE
                   ITERATION ITERATION      FLAG    NUMBER        RESIDUAL        RESIDUAL          CHANGE                    MODEL-(CELLID)
 -------------------------------------------------------------------------------------------------------------------------------------------
 Backtracking              1                   0         0     34.9751         34.9751    
 Linear Solver             1        15                                                       -9.817482E-02                    1_GWF-(1,13,1)
 Under-relaxation          1                                                                 -9.817482E-02                    1_GWF-(1,13,1)
 Backtracking              2                   0         0     2.36010         2.36010    
 Linear Solver             2        13                                                        3.758246E-03                    1_GWF-(3,12,1)

 2 CALLS TO NUMERICAL SOLUTION IN TIME STEP 1 STRESS PERIOD 10
 28 TOTAL ITERATIONS
1
                            STRESS PERIOD NO.   11, LENGTH =   31.00000    
                            -----------------------------------------------

                              NUMBER OF TIME STEPS =     1

                               MULTIPLIER FOR DELT =     1.000

                            INITIAL TIME STEP SIZE =   31.00000    


 OUTER ITERATION SUMMARY
 -------------------------------------------------------------------------------------------------------------------------------------------
                       OUTER     INNER BACKTRACK BACKTRACK        INCOMING        OUTGOING         MAXIMUM                    MAXIMUM CHANGE
                   ITERATION ITERATION      FLAG    NUMBER        RESIDUAL        RESIDUAL          CHANGE                    MODEL-(CELLID)
 -------------------------------------------------------------------------------------------------------------------------------------------
 Backtracking              1                   0         0     11.5827         11.5827    
 Linear Solver             1        16                                                       -3.257550E-02                    1_GWF-(1,13,1)
 Under-relaxation          1                                                                 -3.257550E-02                    1_GWF-(1,13,1)
 Backtracking              2                   0         0    0.696091        0.696091    
 Linear Solver             2         8                                                       -1.795123E-03                    1_GWF-(3,14,3)

 2 CALLS TO NUMERICAL SOLUTION IN TIME STEP 1 STRESS PERIOD 11
 24 TOTAL ITERATIONS
1
                            STRESS PERIOD NO.   12, LENGTH =   30.00000    
                            -----------------------------------------------

                              NUMBER OF TIME STEPS =     1

                               MULTIPLIER FOR DELT =     1.000

                            INITIAL TIME STEP SIZE =   30.00000    


 OUTER ITERATION SUMMARY
 -------------------------------------------------------------------------------------------------------------------------------------------
                       OUTER     INNER BACKTRACK BACKTRACK        INCOMING        OUTGOING         MAXIMUM                    MAXIMUM CHANGE
                   ITERATION ITERATION      FLAG    NUMBER        RESIDUAL        RESIDUAL          CHANGE                    MODEL-(CELLID)
 -------------------------------------------------------------------------------------------------------------------------------------------
 Backtracking              1                   0         0     34.0653         34.0653    
 Linear Solver             1        27                                                        5.161797E-02                    1_GWF-(1,22,8)
 Under-relaxation          1                                                                  5.161797E-02                    1_GWF-(1,22,8)
 Backtracking              2                   0         0     2.54169         2.54169    
 Linear Solver             2         9                                                        1.675833E-03                   1_GWF-(1,40,16)

 2 CALLS TO NUMERICAL SOLUTION IN TIME STEP 1 STRESS PERIOD 12
 36 TOTAL ITERATIONS
1
                            STRESS PERIOD NO.   13, LENGTH =   31.00000    
                            -----------------------------------------------

                              NUMBER OF TIME STEPS =     1

                               MULTIPLIER FOR DELT =     1.000

                            INITIAL TIME STEP SIZE =   31.00000    


 OUTER ITERATION SUMMARY
 -------------------------------------------------------------------------------------------------------------------------------------------
                       OUTER     INNER BACKTRACK BACKTRACK        INCOMING        OUTGOING         MAXIMUM                    MAXIMUM CHANGE
                   ITERATION ITERATION      FLAG    NUMBER        RESIDUAL        RESIDUAL          CHANGE                    MODEL-(CELLID)
 -------------------------------------------------------------------------------------------------------------------------------------------
 Backtracking              1                   0         0     55.7957         55.7957    
 Linear Solver             1        21                                                        9.533917E-02                    1_GWF-(1,26,1)
 Under-relaxation          1                                                                  9.533917E-02                    1_GWF-(1,26,1)
 Backtracking              2                   0         0     3.96845         3.96845    
 Linear Solver             2        13                                                        2.597155E-03                    1_GWF-(3,17,3)

 2 CALLS TO NUMERICAL SOLUTION IN TIME STEP 1 STRESS PERIOD 13
 34 TOTAL ITERATIONS
1
                            STRESS PERIOD NO.   14, LENGTH =   31.00000    
                            -----------------------------------------------

                              NUMBER OF TIME STEPS =     1

                               MULTIPLIER FOR DELT =     1.000

                            INITIAL TIME STEP SIZE =   31.00000    


 OUTER ITERATION SUMMARY
 -------------------------------------------------------------------------------------------------------------------------------------------
                       OUTER     INNER BACKTRACK BACKTRACK        INCOMING        OUTGOING         MAXIMUM                    MAXIMUM CHANGE
                   ITERATION ITERATION      FLAG    NUMBER        RESIDUAL        RESIDUAL          CHANGE                    MODEL-(CELLID)
 -------------------------------------------------------------------------------------------------------------------------------------------
 Backtracking              1                   0         0     61.8973         61.8973    
 Linear Solver             1        19                                                        0.123288                        1_GWF-(1,15,1)
 Under-relaxation          1                                                                  0.123288                        1_GWF-(1,15,1)
 Backtracking              2                   0         0     4.05975         4.05975    
 Linear Solver             2         7                                                        2.128536E-03                   1_GWF-(1,40,16)

 2 CALLS TO NUMERICAL SOLUTION IN TIME STEP 1 STRESS PERIOD 14
 26 TOTAL ITERATIONS
1
                            STRESS PERIOD NO.   15, LENGTH =   28.00000    
                            -----------------------------------------------

                              NUMBER OF TIME STEPS =     1

                               MULTIPLIER FOR DELT =     1.000

                            INITIAL TIME STEP SIZE =   28.00000    


 OUTER ITERATION SUMMARY
 -------------------------------------------------------------------------------------------------------------------------------------------
                       OUTER     INNER BACKTRACK BACKTRACK        INCOMING        OUTGOING         MAXIMUM                    MAXIMUM CHANGE
                   ITERATION ITERATION      FLAG    NUMBER        RESIDUAL        RESIDUAL          CHANGE                    MODEL-(CELLID)
 -------------------------------------------------------------------------------------------------------------------------------------------
 Backtracking              1                   0         0     50.1074         50.1074    
 Linear Solver             1        16                                                        0.108049                        1_GWF-(1,14,1)
 Under-relaxation          1                                                                  0.108049                        1_GWF-(1,14,1)
 Backtracking              2                   0         0     2.75153         2.75153    
 Linear Solver             2         9                                                        1.557745E-03                   1_GWF-(1,25,16)

 2 CALLS TO NUMERICAL SOLUTION IN TIME STEP 1 STRESS PERIOD 15
 25 TOTAL ITERATIONS
1
                            STRESS PERIOD NO.   16, LENGTH =   31.00000    
                            -----------------------------------------------

                              NUMBER OF TIME STEPS =     1

                               MULTIPLIER FOR DELT =     1.000

                            INITIAL TIME STEP SIZE =   31.00000    


 OUTER ITERATION SUMMARY
 -------------------------------------------------------------------------------------------------------------------------------------------
                       OUTER     INNER BACKTRACK BACKTRACK        INCOMING        OUTGOING         MAXIMUM                    MAXIMUM CHANGE
                   ITERATION ITERATION      FLAG    NUMBER        RESIDUAL        RESIDUAL          CHANGE                    MODEL-(CELLID)
 -------------------------------------------------------------------------------------------------------------------------------------------
 Backtracking              1                   0         0     25.6984         25.6984    
 Linear Solver             1        15                                                        7.829894E-02                    1_GWF-(1,14,1)
 Under-relaxation          1                                                                  7.829894E-02                    1_GWF-(1,14,1)
 Backtracking              2                   0         0     1.53484         1.53484    
 Linear Solver             2         9                                                       -2.531803E-03                    1_GWF-(3,11,1)

 2 CALLS TO NUMERICAL SOLUTION IN TIME STEP 1 STRESS PERIOD 16
 24 TOTAL ITERATIONS
1
                            STRESS PERIOD NO.   17, LENGTH =   30.00000    
                            -----------------------------------------------

                              NUMBER OF TIME STEPS =     1

                               MULTIPLIER FOR DELT =     1.000

                            INITIAL TIME STEP SIZE =   30.00000    


 OUTER ITERATION SUMMARY
 -------------------------------------------------------------------------------------------------------------------------------------------
                       OUTER     INNER BACKTRACK BACKTRACK        INCOMING        OUTGOING         MAXIMUM                    MAXIMUM CHANGE
                   ITERATION ITERATION      FLAG    NUMBER        RESIDUAL        RESIDUAL          CHANGE                    MODEL-(CELLID)
 -------------------------------------------------------------------------------------------------------------------------------------------
 Backtracking              1                   0         0     14.6025         14.6025    
 Linear Solver             1        18                                                       -2.239425E-02                   1_GWF-(1,35,20)
 Under-relaxation          1                                                                 -2.239425E-02                   1_GWF-(1,35,20)
 Backtracking              2                   0         0     1.00410         1.00410    
 Linear Solver             2         9                                                       -2.283820E-03                    1_GWF-(3,22,1)

 2 CALLS TO NUMERICAL SOLUTION IN TIME STEP 1 STRESS PERIOD 17
 27 TOTAL ITERATIONS
1
                            STRESS PERIOD NO.   18, LENGTH =   31.00000    
                            -----------------------------------------------

                              NUMBER OF TIME STEPS =     1

                               MULTIPLIER FOR DELT =     1.000

                            INITIAL TIME STEP SIZE =   31.00000    


 OUTER ITERATION SUMMARY
 -------------------------------------------------------------------------------------------------------------------------------------------
                       OUTER     INNER BACKTRACK BACKTRACK        INCOMING        OUTGOING         MAXIMUM                    MAXIMUM CHANGE
                   ITERATION ITERATION      FLAG    NUMBER        RESIDUAL        RESIDUAL          CHANGE                    MODEL-(CELLID)
 -------------------------------------------------------------------------------------------------------------------------------------------
 Backtracking              1                   0         0     41.7965         41.7965    
 Linear Solver             1        21                                                       -6.723175E-02                    1_GWF-(1,30,1)
 Under-relaxation          1                                                                 -6.723175E-02                    1_GWF-(1,30,1)
 Backtracking              2                   0         0     2.76617         2.76617    
 Linear Solver             2         8                                                       -1.747827E-03                   1_GWF-(1,40,16)

 2 CALLS TO NUMERICAL SOLUTION IN TIME STEP 1 STRESS PERIOD 18
 29 TOTAL ITERATIONS
1
                            STRESS PERIOD NO.   19, LENGTH =   30.00000    
                            -----------------------------------------------

                              NUMBER OF TIME STEPS =     1

                               MULTIPLIER FOR DELT =     1.000

                            INITIAL TIME STEP SIZE =   30.00000    


 OUTER ITERATION SUMMARY
 -------------------------------------------------------------------------------------------------------------------------------------------
                       OUTER     INNER BACKTRACK BACKTRACK        INCOMING        OUTGOING         MAXIMUM                    MAXIMUM CHANGE
                   ITERATION ITERATION      FLAG    NUMBER        RESIDUAL        RESIDUAL          CHANGE                    MODEL-(CELLID)
 -------------------------------------------------------------------------------------------------------------------------------------------
 Backtracking              1                   0         0     59.9553         59.9553    
 Linear Solver             1        22                                                       -0.104277                        1_GWF-(1,17,1)
 Under-relaxation          1                                                                 -0.104277                        1_GWF-(1,17,1)
 Backtracking              2                   0         0     3.94667         3.94667    
 Linear Solver             2        12                                                       -2.171302E-03                    1_GWF-(3,20,2)

 2 CALLS TO NUMERICAL SOLUTION IN TIME STEP 1 STRESS PERIOD 19
 34 TOTAL ITERATIONS
1
                            STRESS PERIOD NO.   20, LENGTH =   31.00000    
                            -----------------------------------------------

                              NUMBER OF TIME STEPS =     1

                               MULTIPLIER FOR DELT =     1.000

                            INITIAL TIME STEP SIZE =   31.00000    


 OUTER ITERATION SUMMARY
 -------------------------------------------------------------------------------------------------------------------------------------------
                       OUTER     INNER BACKTRACK BACKTRACK        INCOMING        OUTGOING         MAXIMUM                    MAXIMUM CHANGE
                   ITERATION ITERATION      FLAG    NUMBER        RESIDUAL        RESIDUAL          CHANGE                    MODEL-(CELLID)
 -------------------------------------------------------------------------------------------------------------------------------------------
 Backtracking              1                   0         0     61.8448         61.8448    
 Linear Solver             1        23                                                       -0.129654                        1_GWF-(1,14,1)
 Under-relaxation          1                                                                 -0.129654                        1_GWF-(1,14,1)
 Backtracking              2                   0         0     4.16241         4.16241    
 Linear Solver             2         8                                                       -2.347419E-03                   1_GWF-(1,40,16)

 2 CALLS TO NUMERICAL SOLUTION IN TIME STEP 1 STRESS PERIOD 20
 31 TOTAL ITERATIONS
1
                            STRESS PERIOD NO.   21, LENGTH =   31.00000    
                            -----------------------------------------------

                              NUMBER OF TIME STEPS =     1

                               MULTIPLIER FOR DELT =     1.000

                            INITIAL TIME STEP SIZE =   31.00000    


 OUTER ITERATION SUMMARY
 -------------------------------------------------------------------------------------------------------------------------------------------
                       OUTER     INNER BACKTRACK BACKTRACK        INCOMING        OUTGOING         MAXIMUM                    MAXIMUM CHANGE
                   ITERATION ITERATION      FLAG    NUMBER        RESIDUAL        RESIDUAL          CHANGE                    MODEL-(CELLID)
 -------------------------------------------------------------------------------------------------------------------------------------------
 Backtracking              1                   0         0     45.8648         45.8648    
 Linear Solver             1        15                                                       -0.115576                        1_GWF-(1,13,1)
 Under-relaxation          1                                                                 -0.115576                        1_GWF-(1,13,1)
 Backtracking              2                   0         0     3.22908         3.22908    
 Linear Solver             2        11                                                        3.261503E-03                    1_GWF-(2,10,1)

 2 CALLS TO NUMERICAL SOLUTION IN TIME STEP 1 STRESS PERIOD 21
 26 TOTAL ITERATIONS
1
                            STRESS PERIOD NO.   22, LENGTH =   30.00000    
                            -----------------------------------------------

                              NUMBER OF TIME STEPS =     1

                               MULTIPLIER FOR DELT =     1.000

                            INITIAL TIME STEP SIZE =   30.00000    


 OUTER ITERATION SUMMARY
 -------------------------------------------------------------------------------------------------------------------------------------------
                       OUTER     INNER BACKTRACK BACKTRACK        INCOMING        OUTGOING         MAXIMUM                    MAXIMUM CHANGE
                   ITERATION ITERATION      FLAG    NUMBER        RESIDUAL        RESIDUAL          CHANGE                    MODEL-(CELLID)
 -------------------------------------------------------------------------------------------------------------------------------------------
 Backtracking              1                   0         0     19.0451         19.0451    
 Linear Solver             1        15                                                       -6.268145E-02                    1_GWF-(1,14,1)
 Under-relaxation          1                                                                 -6.268145E-02                    1_GWF-(1,14,1)
 Backtracking              2                   0         0     1.28843         1.28843    
 Linear Solver             2         9                                                       -2.779957E-03                   1_GWF-(2,35,20)

 2 CALLS TO NUMERICAL SOLUTION IN TIME STEP 1 STRESS PERIOD 22
 24 TOTAL ITERATIONS
1
                            STRESS PERIOD NO.   23, LENGTH =   31.00000    
                            -----------------------------------------------

                              NUMBER OF TIME STEPS =     1

                               MULTIPLIER FOR DELT =     1.000

                            INITIAL TIME STEP SIZE =   31.00000    


 OUTER ITERATION SUMMARY
 -------------------------------------------------------------------------------------------------------------------------------------------
                       OUTER     INNER BACKTRACK BACKTRACK        INCOMING        OUTGOING         MAXIMUM                    MAXIMUM CHANGE
                   ITERATION ITERATION      FLAG    NUMBER        RESIDUAL        RESIDUAL          CHANGE                    MODEL-(CELLID)
 -------------------------------------------------------------------------------------------------------------------------------------------
 Backtracking              1                   0         0     21.0952         21.0952    
 Linear Solver             1        20                                                        3.273577E-02                   1_GWF-(1,32,20)
 Under-relaxation          1                                                                  3.273577E-02                   1_GWF-(1,32,20)
 Backtracking              2                   0         0     1.78792         1.78792    
 Linear Solver             2         8                                                        2.746332E-03                    1_GWF-(3,20,2)

 2 CALLS TO NUMERICAL SOLUTION IN TIME STEP 1 STRESS PERIOD 23
 28 TOTAL ITERATIONS
1
                            STRESS PERIOD NO.   24, LENGTH =   30.00000    
                            -----------------------------------------------

                              NUMBER OF TIME STEPS =     1

                               MULTIPLIER FOR DELT =     1.000

                            INITIAL TIME STEP SIZE =   30.00000    


 OUTER ITERATION SUMMARY
 -------------------------------------------------------------------------------------------------------------------------------------------
                       OUTER     INNER BACKTRACK BACKTRACK        INCOMING        OUTGOING         MAXIMUM                    MAXIMUM CHANGE
                   ITERATION ITERATION      FLAG    NUMBER        RESIDUAL        RESIDUAL          CHANGE                    MODEL-(CELLID)
 -------------------------------------------------------------------------------------------------------------------------------------------
 Backtracking              1                   0         0     47.3418         47.3418    
 Linear Solver             1        21                                                        7.555329E-02                    1_GWF-(1,30,1)
 Under-relaxation          1                                                                  7.555329E-02                    1_GWF-(1,30,1)
 Backtracking              2                   0         0     3.48385         3.48385    
 Linear Solver             2        13                                                        2.912342E-03                    1_GWF-(3,18,4)

 2 CALLS TO NUMERICAL SOLUTION IN TIME STEP 1 STRESS PERIOD 24
 34 TOTAL ITERATIONS
1
                            STRESS PERIOD NO.   25, LENGTH =   31.00000    
                            -----------------------------------------------

                              NUMBER OF TIME STEPS =     1

                               MULTIPLIER FOR DELT =     1.000

                            INITIAL TIME STEP SIZE =   31.00000    


 OUTER ITERATION SUMMARY
 -------------------------------------------------------------------------------------------------------------------------------------------
                       OUTER     INNER BACKTRACK BACKTRACK        INCOMING        OUTGOING         MAXIMUM                    MAXIMUM CHANGE
                   ITERATION ITERATION      FLAG    NUMBER        RESIDUAL        RESIDUAL          CHANGE                    MODEL-(CELLID)
 -------------------------------------------------------------------------------------------------------------------------------------------
 Backtracking              1                   0         0     62.2204         62.2204    
 Linear Solver             1        21                                                        0.115799                        1_GWF-(1,16,1)
 Under-relaxation          1                                                                  0.115799                        1_GWF-(1,16,1)
 Backtracking              2                   0         0     4.20816         4.20816    
 Linear Solver             2         9                                                        2.334039E-03                   1_GWF-(1,40,16)

 2 CALLS TO NUMERICAL SOLUTION IN TIME STEP 1 STRESS PERIOD 25
 30 TOTAL ITERATIONS

 INFORMATION ON VARIABLES STORED IN THE MEMORY MANAGER
 
 Number of allocated integer variables:   151870
 Number of allocated real variables:    146065
 Allocated memory in megabytes:     1.77600    
 

 Run end date and time (yyyy/mm/dd hh:mm:ss): 2020/03/26  9:49:38
 Elapsed run time:  0.297 Seconds

 Normal termination of simulation.
